<?xml version="1.0" encoding="UTF-8"?>

<!-- generated on 11/22/20 14:59:13 by Eclipse SUMO netedit Version 1.7.0
<configuration xmlns:xsi="http://www.w3.org/2001/XMLSchema-instance" xsi:noNamespaceSchemaLocation="http://sumo.dlr.de/xsd/netconvertConfiguration.xsd">

    <input>
        <sumo-net-file value="D:\sumo\sin\sin.net.xml"/>
    </input>

    <output>
        <output-file value="D:\sumo\sin\sin.net.xml"/>
    </output>

    <processing>
        <geometry.min-radius.fix.railways value="false"/>
        <geometry.max-grade.fix value="false"/>
        <offset.disable-normalization value="true"/>
        <lefthand value="false"/>
    </processing>

    <junctions>
        <no-internal-links value="false"/>
        <no-turnarounds value="true"/>
        <junctions.corner-detail value="5"/>
        <junctions.limit-turn-speed value="5.5"/>
        <rectangular-lane-cut value="false"/>
    </junctions>

    <pedestrian>
        <walkingareas value="true"/>
    </pedestrian>

    <netedit>
        <additional-files value="D:\sumo\sin\sin.net.add.xml"/>
        <route-files value="D:\sumo\sin\drive_through.rou.xml"/>
    </netedit>

    <report>
        <aggregate-warnings value="5"/>
    </report>

</configuration>
-->

<routes xmlns:xsi="http://www.w3.org/2001/XMLSchema-instance" xsi:noNamespaceSchemaLocation="http://sumo.dlr.de/xsd/routes_file.xsd">
    <flow id="flow_down" begin="0.00" color="red" from="-533" to="642" via="-365 -125 121 -64 -13 15 119" end="3600.00" probability="0.20">
        <stop lane="-123.134.98_1" startPos="0.89" endPos="10.89" duration="60.00"/>
    </flow>
    <flow id="flow_up" begin="0.00" color="red" from="-642" to="533" via="-592 -15 13 64 -121 125 365" end="3600.00" probability="0.20"/>
</routes>
