<routes xmlns:xsi="http://www.w3.org/2001/XMLSchema-instance" xsi:noNamespaceSchemaLocation="http://sumo.dlr.de/xsd/routes_file.xsd">
    <route edges="-9 -9.191.77 7" color="yellow" id="en"/>
    <route edges="-9 -9.191.77 3" color="yellow" id="es"/>
    <route edges="-9 -9.191.77 11" color="yellow" id="ew"/>
    <route edges="-7 -7.191.49 9" color="yellow" id="ne"/>
    <route edges="-7 -7.191.49 3" color="yellow" id="ns"/>
    <route edges="-7 -7.191.49 11" color="yellow" id="nw"/>
    <route edges="-3 -3.213.65 9" color="yellow" id="se"/>
    <route edges="-3 -3.213.65 7" color="yellow" id="sn"/>
    <route edges="-3 -3.213.65 11" color="yellow" id="sw"/>
    <route edges="-11 -11.149.92 9" color="yellow" id="we"/>
    <route edges="-11 -11.149.92 7" color="yellow" id="wn"/>
    <route edges="-11 -11.149.92 3" color="yellow" id="ws"/>


<!--    first 200 iterations only we|ew|ws|en -->
    <vehicle id="0" route="en" depart="0" />
    <vehicle id="1" route="we" depart="1" />
    <vehicle id="2" route="we" depart="5" />
<!--    <vehicle id="3" route="sn" depart="8" />-->
<!--    <vehicle id="4" route="sn" depart="10" />-->
<!--    <vehicle id="5" route="wn" depart="10" />-->
<!--    <vehicle id="6" route="sw" depart="22" />-->
<!--    <vehicle id="7" route="nw" depart="24" />-->
    <vehicle id="8" route="en" depart="24" />
<!--    <vehicle id="9" route="ne" depart="27" />-->
<!--    <vehicle id="10" route="wn" depart="28" />-->
    <vehicle id="11" route="ws" depart="30" />
<!--    <vehicle id="12" route="es" depart="32" />-->
    <vehicle id="13" route="we" depart="34" />
    <vehicle id="14" route="we" depart="35" />
<!--    <vehicle id="15" route="ns" depart="40" />-->
    <vehicle id="16" route="en" depart="41" />
<!--    <vehicle id="17" route="nw" depart="43" />-->
<!--    <vehicle id="18" route="ne" depart="44" />-->
<!--    <vehicle id="19" route="es" depart="49" />-->
<!--    <vehicle id="20" route="ns" depart="53" />-->
<!--    <vehicle id="21" route="ne" depart="57" />-->
    <vehicle id="22" route="ew" depart="70" />
<!--    <vehicle id="23" route="wn" depart="73" />-->
    <vehicle id="24" route="ws" depart="79" />
<!--    <vehicle id="25" route="wn" depart="80" />-->
    <vehicle id="26" route="ew" depart="82" />
<!--    <vehicle id="27" route="sw" depart="84" />-->
<!--    <vehicle id="28" route="wn" depart="85" />-->
<!--    <vehicle id="29" route="nw" depart="86" />-->
    <vehicle id="30" route="en" depart="93" />
<!--    <vehicle id="31" route="sw" depart="94" />-->
    <vehicle id="32" route="ew" depart="94" />
<!--    <vehicle id="33" route="sn" depart="97" />-->
<!--    <vehicle id="34" route="es" depart="97" />-->
    <vehicle id="35" route="en" depart="98" />
<!--    <vehicle id="36" route="sw" depart="99" />-->
    <vehicle id="37" route="ew" depart="114" />
    <vehicle id="38" route="ew" depart="115" />
<!--    <vehicle id="39" route="sn" depart="117" />-->
<!--    <vehicle id="40" route="ns" depart="119" />-->
    <vehicle id="41" route="ws" depart="129" />
<!--    <vehicle id="42" route="ns" depart="138" />-->
    <vehicle id="43" route="we" depart="144" />
<!--    <vehicle id="44" route="es" depart="144" />-->
    <vehicle id="45" route="we" depart="150" />
<!--    <vehicle id="46" route="ne" depart="153" />-->
<!--    <vehicle id="47" route="nw" depart="156" />-->
    <vehicle id="48" route="we" depart="161" />
<!--    <vehicle id="49" route="sw" depart="163" />-->
<!--    <vehicle id="50" route="wn" depart="163" />-->
<!--    <vehicle id="51" route="es" depart="164" />-->
<!--    <vehicle id="52" route="es" depart="170" />-->
<!--    <vehicle id="53" route="ne" depart="176" />-->
    <vehicle id="54" route="ws" depart="176" />
<!--    <vehicle id="55" route="es" depart="176" />-->
<!--    <vehicle id="56" route="nw" depart="177" />-->
<!--    <vehicle id="57" route="sw" depart="179" />-->
    <vehicle id="58" route="we" depart="180" />
<!--    <vehicle id="59" route="ns" depart="185" />-->
<!--    <vehicle id="60" route="es" depart="185" />-->
    <vehicle id="61" route="we" depart="193" />
<!--    <vehicle id="62" route="nw" depart="194" />-->
<!--    <vehicle id="63" route="nw" depart="195" />-->
    <vehicle id="64" route="ew" depart="197" />


<!--    second 200 iterations only nw|ns|sn|se -->
    <vehicle id="65" route="nw" depart="202" />
<!--    <vehicle id="66" route="ws" depart="209" />-->
<!--    <vehicle id="67" route="ew" depart="211" />-->
<!--    <vehicle id="68" route="we" depart="213" />-->
<!--    <vehicle id="69" route="ne" depart="214" />-->
<!--    <vehicle id="70" route="we" depart="215" />-->
<!--    <vehicle id="71" route="en" depart="219" />-->
<!--    <vehicle id="72" route="ew" depart="223" />-->
<!--    <vehicle id="73" route="ew" depart="227" />-->
<!--    <vehicle id="74" route="ne" depart="229" />-->
<!--    <vehicle id="75" route="we" depart="229" />-->
<!--    <vehicle id="76" route="ew" depart="233" />-->
<!--    <vehicle id="77" route="en" depart="234" />-->
<!--    <vehicle id="78" route="sw" depart="235" />-->
    <vehicle id="79" route="sn" depart="236" />
<!--    <vehicle id="80" route="wn" depart="237" />-->
<!--    <vehicle id="81" route="ws" depart="243" />-->
    <vehicle id="82" route="sn" depart="244" />
    <vehicle id="83" route="nw" depart="249" />
<!--    <vehicle id="84" route="we" depart="251" />-->
<!--    <vehicle id="85" route="we" depart="253" />-->
<!--    <vehicle id="86" route="en" depart="261" />-->
<!--    <vehicle id="87" route="ne" depart="267" />-->
    <vehicle id="88" route="se" depart="267" />
<!--    <vehicle id="89" route="we" depart="267" />-->
    <vehicle id="90" route="ns" depart="276" />
<!--    <vehicle id="91" route="sw" depart="277" />-->
    <vehicle id="92" route="ns" depart="281" />
<!--    <vehicle id="93" route="es" depart="283" />-->
    <vehicle id="94" route="ns" depart="293" />
<!--    <vehicle id="95" route="we" depart="304" />-->
    <vehicle id="96" route="sn" depart="309" />
<!--    <vehicle id="97" route="ew" depart="310" />-->
<!--    <vehicle id="98" route="we" depart="311" />-->
<!--    <vehicle id="99" route="es" depart="313" />-->
<!--    <vehicle id="100" route="en" depart="316" />-->
    <vehicle id="101" route="sn" depart="320" />
    <vehicle id="102" route="se" depart="322" />
<!--    <vehicle id="103" route="sw" depart="329" />-->
<!--    <vehicle id="104" route="wn" depart="330" />-->
    <vehicle id="105" route="ns" depart="336" />
    <vehicle id="106" route="se" depart="339" />
<!--    <vehicle id="107" route="ew" depart="339" />-->
<!--    <vehicle id="108" route="we" depart="341" />-->
<!--    <vehicle id="109" route="en" depart="341" />-->
<!--    <vehicle id="110" route="ne" depart="346" />-->
<!--    <vehicle id="111" route="we" depart="348" />-->
<!--    <vehicle id="112" route="ws" depart="350" />-->
<!--    <vehicle id="113" route="ne" depart="355" />-->
    <vehicle id="114" route="se" depart="358" />
<!--    <vehicle id="115" route="wn" depart="362" />-->
<!--    <vehicle id="116" route="ew" depart="362" />-->
    <vehicle id="117" route="se" depart="363" />
<!--    <vehicle id="118" route="we" depart="363" />-->
<!--    <vehicle id="119" route="ew" depart="365" />-->
<!--    <vehicle id="120" route="we" depart="369" />-->
<!--    <vehicle id="121" route="ew" depart="370" />-->
<!--    <vehicle id="122" route="en" depart="374" />-->
    <vehicle id="123" route="ns" depart="375" />
<!--    <vehicle id="124" route="ew" depart="378" />-->
<!--    <vehicle id="125" route="sw" depart="383" />-->
<!--    <vehicle id="126" route="es" depart="386" />-->
<!--    <vehicle id="127" route="we" depart="388" />-->
<!--    <vehicle id="128" route="we" depart="390" />-->
    <vehicle id="129" route="nw" depart="392" />
<!--    <vehicle id="130" route="wn" depart="392" />-->
    <vehicle id="131" route="sn" depart="393" />
<!--    <vehicle id="132" route="we" depart="393" />-->
    <vehicle id="133" route="nw" depart="394" />
<!--    <vehicle id="134" route="ws" depart="394" />-->
<!--    <vehicle id="135" route="es" depart="395" />-->


<!--    third 200 iterations only ne|en|ws|sw -->
<!--    <vehicle id="136" route="nw" depart="403" />-->
    <vehicle id="137" route="sw" depart="411" />
    <vehicle id="138" route="sw" depart="417" />
<!--    <vehicle id="139" route="wn" depart="417" />-->
<!--    <vehicle id="140" route="sn" depart="418" />-->
<!--    <vehicle id="141" route="ew" depart="418" />-->
    <vehicle id="142" route="ws" depart="421" />
<!--    <vehicle id="143" route="we" depart="422" />-->
    <vehicle id="144" route="ws" depart="423" />
<!--    <vehicle id="145" route="nw" depart="425" />-->
<!--    <vehicle id="146" route="ew" depart="426" />-->
    <vehicle id="147" route="ws" depart="435" />
<!--    <vehicle id="148" route="ns" depart="437" />-->
    <vehicle id="149" route="ws" depart="439" />
<!--    <vehicle id="150" route="we" depart="444" />-->
<!--    <vehicle id="151" route="se" depart="446" />-->
<!--    <vehicle id="152" route="we" depart="449" />-->
    <vehicle id="153" route="ne" depart="452" />
<!--    <vehicle id="154" route="we" depart="452" />-->
<!--    <vehicle id="155" route="sn" depart="458" />-->
<!--    <vehicle id="156" route="ew" depart="459" />-->
<!--    <vehicle id="157" route="we" depart="463" />-->
    <vehicle id="158" route="ws" depart="466" />
<!--    <vehicle id="159" route="es" depart="466" />-->
    <vehicle id="160" route="ws" depart="468" />
<!--    <vehicle id="161" route="se" depart="476" />-->
<!--    <vehicle id="162" route="sn" depart="477" />-->
<!--    <vehicle id="163" route="sn" depart="478" />-->
<!--    <vehicle id="164" route="ew" depart="489" />-->
    <vehicle id="165" route="sw" depart="492" />
<!--    <vehicle id="166" route="se" depart="497" />-->
    <vehicle id="167" route="en" depart="501" />
<!--    <vehicle id="168" route="es" depart="507" />-->
<!--    <vehicle id="169" route="we" depart="516" />-->
<!--    <vehicle id="170" route="we" depart="519" />-->
<!--    <vehicle id="171" route="es" depart="520" />-->
<!--    <vehicle id="172" route="sn" depart="525" />-->
<!--    <vehicle id="173" route="wn" depart="529" />-->
<!--    <vehicle id="174" route="we" depart="533" />-->
    <vehicle id="175" route="en" depart="537" />
<!--    <vehicle id="176" route="ns" depart="544" />-->
<!--    <vehicle id="177" route="we" depart="549" />-->
    <vehicle id="178" route="ws" depart="551" />
<!--    <vehicle id="179" route="es" depart="552" />-->
<!--    <vehicle id="180" route="we" depart="558" />-->
<!--    <vehicle id="181" route="se" depart="561" />-->
    <vehicle id="182" route="ws" depart="562" />
<!--    <vehicle id="183" route="es" depart="562" />-->
<!--    <vehicle id="184" route="ew" depart="563" />-->
<!--    <vehicle id="185" route="ew" depart="564" />-->
<!--    <vehicle id="186" route="se" depart="567" />-->
<!--    <vehicle id="187" route="ns" depart="570" />-->
<!--    <vehicle id="188" route="we" depart="570" />-->
<!--    <vehicle id="189" route="nw" depart="576" />-->
<!--    <vehicle id="190" route="nw" depart="578" />-->
<!--    <vehicle id="191" route="wn" depart="580" />-->
<!--    <vehicle id="192" route="we" depart="587" />-->
    <vehicle id="193" route="ne" depart="592" />
<!--    <vehicle id="194" route="ew" depart="592" />-->
<!--    <vehicle id="195" route="es" depart="597" />-->
<!--    <vehicle id="196" route="se" depart="598" />-->


<!--    fourth 200 iterations only nw|wn|es|se -->
<!--    <vehicle id="197" route="ne" depart="601" />-->
    <vehicle id="198" route="se" depart="601" />
    <vehicle id="199" route="nw" depart="603" />
<!--    <vehicle id="200" route="we" depart="603" />-->
    <vehicle id="201" route="wn" depart="608" />
    <vehicle id="202" route="es" depart="608" />
<!--    <vehicle id="203" route="ew" depart="612" />-->
<!--    <vehicle id="204" route="ew" depart="615" />-->
    <vehicle id="205" route="nw" depart="618" />
<!--    <vehicle id="206" route="ew" depart="619" />-->
<!--    <vehicle id="207" route="we" depart="620" />-->
    <vehicle id="208" route="es" depart="620" />
<!--    <vehicle id="209" route="ew" depart="622" />-->
<!--    <vehicle id="210" route="we" depart="625" />-->
<!--    <vehicle id="211" route="we" depart="628" />-->
<!--    <vehicle id="212" route="en" depart="629" />-->
    <vehicle id="213" route="wn" depart="632" />
<!--    <vehicle id="214" route="sn" depart="633" />-->
<!--    <vehicle id="215" route="ew" depart="637" />-->
<!--    <vehicle id="216" route="ws" depart="642" />-->
    <vehicle id="217" route="es" depart="643" />
<!--    <vehicle id="218" route="en" depart="645" />-->
<!--    <vehicle id="219" route="we" depart="653" />-->
<!--    <vehicle id="220" route="en" depart="654" />-->
<!--    <vehicle id="221" route="we" depart="657" />-->
<!--    <vehicle id="222" route="ns" depart="659" />-->
<!--    <vehicle id="223" route="we" depart="662" />-->
    <vehicle id="224" route="nw" depart="665" />
<!--    <vehicle id="225" route="ns" depart="668" />-->
    <vehicle id="226" route="wn" depart="668" />
<!--    <vehicle id="227" route="ws" depart="671" />-->
<!--    <vehicle id="228" route="sn" depart="678" />-->
<!--    <vehicle id="229" route="ew" depart="684" />-->
<!--    <vehicle id="230" route="we" depart="686" />-->
<!--    <vehicle id="231" route="sn" depart="688" />-->
<!--    <vehicle id="232" route="en" depart="689" />-->
<!--    <vehicle id="233" route="sn" depart="692" />-->
    <vehicle id="234" route="wn" depart="697" />
    <vehicle id="235" route="es" depart="699" />
<!--    <vehicle id="236" route="ew" depart="707" />-->
    <vehicle id="237" route="nw" depart="712" />
<!--    <vehicle id="238" route="ew" depart="714" />-->
<!--    <vehicle id="239" route="en" depart="717" />-->
    <vehicle id="240" route="wn" depart="721" />
    <vehicle id="241" route="se" depart="725" />
    <vehicle id="242" route="se" depart="729" />
<!--    <vehicle id="243" route="we" depart="730" />-->
<!--    <vehicle id="244" route="ew" depart="730" />-->
<!--    <vehicle id="245" route="sn" depart="731" />-->
<!--    <vehicle id="246" route="sw" depart="733" />-->
    <vehicle id="247" route="wn" depart="736" />
<!--    <vehicle id="248" route="en" depart="739" />-->
<!--    <vehicle id="249" route="ew" depart="739" />-->
<!--    <vehicle id="250" route="ws" depart="741" />-->
<!--    <vehicle id="251" route="ew" depart="743" />-->
    <vehicle id="252" route="nw" depart="744" />
    <vehicle id="253" route="es" depart="747" />
<!--    <vehicle id="254" route="we" depart="748" />-->
<!--    <vehicle id="255" route="sw" depart="756" />-->
<!--    <vehicle id="256" route="we" depart="758" />-->
<!--    <vehicle id="257" route="ns" depart="762" />-->
<!--    <vehicle id="258" route="en" depart="763" />-->
    <vehicle id="259" route="nw" depart="765" />
<!--    <vehicle id="260" route="sn" depart="765" />-->
    <vehicle id="261" route="wn" depart="768" />
<!--    <vehicle id="262" route="en" depart="769" />-->
<!--    <vehicle id="263" route="en" depart="770" />-->
<!--    <vehicle id="264" route="ew" depart="773" />-->
<!--    <vehicle id="265" route="ew" depart="776" />-->
<!--    <vehicle id="266" route="en" depart="777" />-->
<!--    <vehicle id="267" route="ew" depart="778" />-->
<!--    <vehicle id="268" route="ne" depart="779" />-->
    <vehicle id="269" route="se" depart="784" />
<!--    <vehicle id="270" route="we" depart="787" />-->
<!--    <vehicle id="271" route="sw" depart="789" />-->
<!--    <vehicle id="272" route="ws" depart="793" />-->


<!--    rest is random -->
    <vehicle id="273" route="nw" depart="801" />
    <vehicle id="274" route="ws" depart="803" />
    <vehicle id="275" route="we" depart="804" />
    <vehicle id="276" route="ew" depart="806" />
    <vehicle id="277" route="we" depart="808" />
    <vehicle id="278" route="se" depart="809" />
    <vehicle id="279" route="en" depart="814" />
    <vehicle id="280" route="ns" depart="817" />
    <vehicle id="281" route="sw" depart="817" />
    <vehicle id="282" route="we" depart="820" />
    <vehicle id="283" route="es" depart="820" />
    <vehicle id="284" route="ns" depart="835" />
    <vehicle id="285" route="we" depart="837" />
    <vehicle id="286" route="es" depart="845" />
    <vehicle id="287" route="we" depart="852" />
    <vehicle id="288" route="sn" depart="858" />
    <vehicle id="289" route="ew" depart="858" />
    <vehicle id="290" route="en" depart="865" />
    <vehicle id="291" route="ew" depart="865" />
    <vehicle id="292" route="se" depart="869" />
    <vehicle id="293" route="wn" depart="870" />
    <vehicle id="294" route="ns" depart="876" />
    <vehicle id="295" route="ew" depart="877" />
    <vehicle id="296" route="ne" depart="878" />
    <vehicle id="297" route="es" depart="879" />
    <vehicle id="298" route="en" depart="880" />
    <vehicle id="299" route="ew" depart="881" />
    <vehicle id="300" route="es" depart="884" />
    <vehicle id="301" route="sn" depart="889" />
    <vehicle id="302" route="se" depart="897" />
    <vehicle id="303" route="wn" depart="897" />
    <vehicle id="304" route="we" depart="899" />
    <vehicle id="305" route="ws" depart="899" />
    <vehicle id="306" route="ne" depart="901" />
    <vehicle id="307" route="ns" depart="903" />
    <vehicle id="308" route="ew" depart="906" />
    <vehicle id="309" route="wn" depart="909" />
    <vehicle id="310" route="se" depart="910" />
    <vehicle id="311" route="wn" depart="913" />
    <vehicle id="312" route="nw" depart="919" />
    <vehicle id="313" route="ew" depart="921" />
    <vehicle id="314" route="ns" depart="923" />
    <vehicle id="315" route="ew" depart="925" />
    <vehicle id="316" route="se" depart="928" />
    <vehicle id="317" route="ew" depart="928" />
    <vehicle id="318" route="es" depart="929" />
    <vehicle id="319" route="ws" depart="930" />
    <vehicle id="320" route="ws" depart="931" />
    <vehicle id="321" route="nw" depart="932" />
    <vehicle id="322" route="es" depart="939" />
    <vehicle id="323" route="ew" depart="939" />
    <vehicle id="324" route="ne" depart="941" />
    <vehicle id="325" route="ws" depart="945" />
    <vehicle id="326" route="wn" depart="947" />
    <vehicle id="327" route="ws" depart="953" />
    <vehicle id="328" route="ws" depart="959" />
    <vehicle id="329" route="ew" depart="963" />
    <vehicle id="330" route="sw" depart="965" />
    <vehicle id="331" route="nw" depart="966" />
    <vehicle id="332" route="ns" depart="969" />
    <vehicle id="333" route="se" depart="969" />
    <vehicle id="334" route="sw" depart="969" />
    <vehicle id="335" route="ew" depart="970" />
    <vehicle id="336" route="ew" depart="974" />
    <vehicle id="337" route="es" depart="979" />
    <vehicle id="338" route="ws" depart="988" />
    <vehicle id="339" route="sw" depart="991" />
    <vehicle id="340" route="ne" depart="994" />
    <vehicle id="341" route="sn" depart="1001" />
    <vehicle id="342" route="we" depart="1008" />
    <vehicle id="343" route="en" depart="1008" />
    <vehicle id="344" route="se" depart="1015" />
    <vehicle id="345" route="we" depart="1018" />
    <vehicle id="346" route="se" depart="1019" />
    <vehicle id="347" route="wn" depart="1025" />
    <vehicle id="348" route="es" depart="1028" />
    <vehicle id="349" route="se" depart="1029" />
    <vehicle id="350" route="se" depart="1041" />
    <vehicle id="351" route="nw" depart="1047" />
    <vehicle id="352" route="sw" depart="1050" />
    <vehicle id="353" route="en" depart="1052" />
    <vehicle id="354" route="ew" depart="1054" />
    <vehicle id="355" route="en" depart="1057" />
    <vehicle id="356" route="es" depart="1057" />
    <vehicle id="357" route="sn" depart="1059" />
    <vehicle id="358" route="we" depart="1059" />
    <vehicle id="359" route="en" depart="1060" />
    <vehicle id="360" route="ws" depart="1063" />
    <vehicle id="361" route="sw" depart="1066" />
    <vehicle id="362" route="ew" depart="1066" />
    <vehicle id="363" route="en" depart="1067" />
    <vehicle id="364" route="we" depart="1069" />
    <vehicle id="365" route="es" depart="1072" />
    <vehicle id="366" route="sn" depart="1076" />
    <vehicle id="367" route="we" depart="1076" />
    <vehicle id="368" route="ne" depart="1083" />
    <vehicle id="369" route="es" depart="1083" />
    <vehicle id="370" route="we" depart="1085" />
    <vehicle id="371" route="ns" depart="1089" />
    <vehicle id="372" route="sn" depart="1089" />
    <vehicle id="373" route="wn" depart="1089" />
    <vehicle id="374" route="we" depart="1090" />
    <vehicle id="375" route="se" depart="1092" />
    <vehicle id="376" route="nw" depart="1093" />
    <vehicle id="377" route="nw" depart="1101" />
    <vehicle id="378" route="se" depart="1102" />
    <vehicle id="379" route="en" depart="1106" />
    <vehicle id="380" route="ew" depart="1108" />
    <vehicle id="381" route="en" depart="1110" />
    <vehicle id="382" route="we" depart="1113" />
    <vehicle id="383" route="ns" depart="1114" />
    <vehicle id="384" route="en" depart="1116" />
    <vehicle id="385" route="ew" depart="1124" />
    <vehicle id="386" route="wn" depart="1127" />
    <vehicle id="387" route="wn" depart="1133" />
    <vehicle id="388" route="nw" depart="1139" />
    <vehicle id="389" route="wn" depart="1139" />
    <vehicle id="390" route="ns" depart="1141" />
    <vehicle id="391" route="we" depart="1143" />
    <vehicle id="392" route="sw" depart="1144" />
    <vehicle id="393" route="se" depart="1147" />
    <vehicle id="394" route="wn" depart="1147" />
    <vehicle id="395" route="ew" depart="1149" />
    <vehicle id="396" route="es" depart="1150" />
    <vehicle id="397" route="ew" depart="1157" />
    <vehicle id="398" route="we" depart="1158" />
    <vehicle id="399" route="we" depart="1159" />
    <vehicle id="400" route="wn" depart="1161" />
    <vehicle id="401" route="sw" depart="1166" />
    <vehicle id="402" route="ne" depart="1168" />
    <vehicle id="403" route="sw" depart="1174" />
    <vehicle id="404" route="ne" depart="1176" />
    <vehicle id="405" route="es" depart="1180" />
    <vehicle id="406" route="wn" depart="1182" />
    <vehicle id="407" route="se" depart="1184" />
    <vehicle id="408" route="es" depart="1188" />
    <vehicle id="409" route="wn" depart="1189" />
    <vehicle id="410" route="se" depart="1193" />
    <vehicle id="411" route="en" depart="1199" />
    <vehicle id="412" route="se" depart="1200" />
    <vehicle id="413" route="ns" depart="1206" />
    <vehicle id="414" route="es" depart="1207" />
    <vehicle id="415" route="ew" depart="1208" />
    <vehicle id="416" route="ew" depart="1215" />
    <vehicle id="417" route="ne" depart="1216" />
    <vehicle id="418" route="se" depart="1216" />
    <vehicle id="419" route="ws" depart="1219" />
    <vehicle id="420" route="es" depart="1219" />
    <vehicle id="421" route="sn" depart="1222" />
    <vehicle id="422" route="we" depart="1223" />
    <vehicle id="423" route="ne" depart="1228" />
    <vehicle id="424" route="ew" depart="1229" />
    <vehicle id="425" route="ew" depart="1233" />
    <vehicle id="426" route="ws" depart="1235" />
    <vehicle id="427" route="ew" depart="1239" />
    <vehicle id="428" route="en" depart="1240" />
    <vehicle id="429" route="sw" depart="1244" />
    <vehicle id="430" route="nw" depart="1249" />
    <vehicle id="431" route="ne" depart="1251" />
    <vehicle id="432" route="se" depart="1251" />
    <vehicle id="433" route="ew" depart="1251" />
    <vehicle id="434" route="nw" depart="1255" />
    <vehicle id="435" route="wn" depart="1256" />
    <vehicle id="436" route="se" depart="1258" />
    <vehicle id="437" route="sn" depart="1260" />
    <vehicle id="438" route="ew" depart="1263" />
    <vehicle id="439" route="en" depart="1267" />
    <vehicle id="440" route="ns" depart="1268" />
    <vehicle id="441" route="wn" depart="1269" />
    <vehicle id="442" route="sw" depart="1270" />
    <vehicle id="443" route="sw" depart="1272" />
    <vehicle id="444" route="we" depart="1275" />
    <vehicle id="445" route="ws" depart="1277" />
    <vehicle id="446" route="es" depart="1283" />
    <vehicle id="447" route="we" depart="1285" />
    <vehicle id="448" route="ew" depart="1287" />
    <vehicle id="449" route="es" depart="1293" />
    <vehicle id="450" route="ew" depart="1295" />
    <vehicle id="451" route="wn" depart="1297" />
    <vehicle id="452" route="es" depart="1297" />
    <vehicle id="453" route="sw" depart="1298" />
    <vehicle id="454" route="se" depart="1311" />
    <vehicle id="455" route="es" depart="1311" />
    <vehicle id="456" route="wn" depart="1312" />
    <vehicle id="457" route="we" depart="1315" />
    <vehicle id="458" route="se" depart="1317" />
    <vehicle id="459" route="nw" depart="1319" />
    <vehicle id="460" route="wn" depart="1320" />
    <vehicle id="461" route="en" depart="1321" />
    <vehicle id="462" route="wn" depart="1325" />
    <vehicle id="463" route="es" depart="1326" />
    <vehicle id="464" route="we" depart="1328" />
    <vehicle id="465" route="wn" depart="1329" />
    <vehicle id="466" route="se" depart="1332" />
    <vehicle id="467" route="nw" depart="1333" />
    <vehicle id="468" route="we" depart="1333" />
    <vehicle id="469" route="ew" depart="1336" />
    <vehicle id="470" route="wn" depart="1337" />
    <vehicle id="471" route="ew" depart="1341" />
    <vehicle id="472" route="we" depart="1344" />
    <vehicle id="473" route="wn" depart="1347" />
    <vehicle id="474" route="es" depart="1347" />
    <vehicle id="475" route="ew" depart="1351" />
    <vehicle id="476" route="sw" depart="1352" />
    <vehicle id="477" route="ws" depart="1361" />
    <vehicle id="478" route="ew" depart="1362" />
    <vehicle id="479" route="es" depart="1366" />
    <vehicle id="480" route="ew" depart="1367" />
    <vehicle id="481" route="we" depart="1373" />
    <vehicle id="482" route="ew" depart="1375" />
    <vehicle id="483" route="se" depart="1378" />
    <vehicle id="484" route="we" depart="1383" />
    <vehicle id="485" route="es" depart="1383" />
    <vehicle id="486" route="ew" depart="1384" />
    <vehicle id="487" route="sn" depart="1387" />
    <vehicle id="488" route="se" depart="1388" />
    <vehicle id="489" route="es" depart="1388" />
    <vehicle id="490" route="sw" depart="1390" />
    <vehicle id="491" route="ne" depart="1393" />
    <vehicle id="492" route="ns" depart="1394" />
    <vehicle id="493" route="sn" depart="1394" />
    <vehicle id="494" route="es" depart="1398" />
    <vehicle id="495" route="sw" depart="1400" />
    <vehicle id="496" route="es" depart="1403" />
    <vehicle id="497" route="nw" depart="1404" />
    <vehicle id="498" route="we" depart="1410" />
    <vehicle id="499" route="se" depart="1413" />
    <vehicle id="500" route="ew" depart="1413" />
    <vehicle id="501" route="ws" depart="1414" />
    <vehicle id="502" route="en" depart="1416" />
    <vehicle id="503" route="es" depart="1417" />
    <vehicle id="504" route="nw" depart="1418" />
    <vehicle id="505" route="ws" depart="1418" />
    <vehicle id="506" route="ew" depart="1418" />
    <vehicle id="507" route="sw" depart="1423" />
    <vehicle id="508" route="en" depart="1425" />
    <vehicle id="509" route="se" depart="1426" />
    <vehicle id="510" route="es" depart="1429" />
    <vehicle id="511" route="ne" depart="1430" />
    <vehicle id="512" route="ns" depart="1437" />
    <vehicle id="513" route="sn" depart="1437" />
    <vehicle id="514" route="we" depart="1438" />
    <vehicle id="515" route="sn" depart="1440" />
    <vehicle id="516" route="nw" depart="1445" />
    <vehicle id="517" route="nw" depart="1457" />
    <vehicle id="518" route="es" depart="1459" />
    <vehicle id="519" route="sw" depart="1466" />
    <vehicle id="520" route="we" depart="1467" />
    <vehicle id="521" route="en" depart="1474" />
    <vehicle id="522" route="nw" depart="1477" />
    <vehicle id="523" route="ns" depart="1478" />
    <vehicle id="524" route="wn" depart="1478" />
    <vehicle id="525" route="es" depart="1480" />
    <vehicle id="526" route="ns" depart="1484" />
    <vehicle id="527" route="ws" depart="1485" />
    <vehicle id="528" route="en" depart="1492" />
    <vehicle id="529" route="ew" depart="1498" />
    <vehicle id="530" route="en" depart="1499" />
    <vehicle id="531" route="wn" depart="1504" />
    <vehicle id="532" route="ns" depart="1507" />
    <vehicle id="533" route="we" depart="1512" />
    <vehicle id="534" route="ew" depart="1514" />
    <vehicle id="535" route="ne" depart="1516" />
    <vehicle id="536" route="we" depart="1516" />
    <vehicle id="537" route="nw" depart="1517" />
    <vehicle id="538" route="ew" depart="1524" />
    <vehicle id="539" route="en" depart="1525" />
    <vehicle id="540" route="we" depart="1530" />
    <vehicle id="541" route="es" depart="1530" />
    <vehicle id="542" route="ew" depart="1530" />
    <vehicle id="543" route="wn" depart="1531" />
    <vehicle id="544" route="se" depart="1537" />
    <vehicle id="545" route="ne" depart="1538" />
    <vehicle id="546" route="en" depart="1541" />
    <vehicle id="547" route="nw" depart="1542" />
    <vehicle id="548" route="sw" depart="1547" />