<?xml version="1.0" encoding="UTF-8"?>

<!-- generated on 11/24/20 20:05:32 by Eclipse SUMO netedit Version 1.7.0
<configuration xmlns:xsi="http://www.w3.org/2001/XMLSchema-instance" xsi:noNamespaceSchemaLocation="http://sumo.dlr.de/xsd/netconvertConfiguration.xsd">

    <input>
        <sumo-net-file value="D:\sumo\sin\sin.net.xml"/>
    </input>

    <output>
        <output-file value="D:\sumo\sin\sin.net.xml"/>
    </output>

    <processing>
        <geometry.min-radius.fix.railways value="false"/>
        <geometry.max-grade.fix value="false"/>
        <offset.disable-normalization value="true"/>
        <lefthand value="false"/>
    </processing>

    <junctions>
        <no-internal-links value="false"/>
        <no-turnarounds value="true"/>
        <junctions.corner-detail value="5"/>
        <junctions.limit-turn-speed value="5.5"/>
        <rectangular-lane-cut value="false"/>
    </junctions>

    <pedestrian>
        <walkingareas value="true"/>
    </pedestrian>

    <netedit>
        <additional-files value="D:\sumo\sin\sin.add.xml"/>
        <route-files value="D:\sumo\sin\routes.rou.xml"/>
    </netedit>

    <report>
        <aggregate-warnings value="5"/>
    </report>

</configuration>
-->

<net version="1.6" junctionCornerDetail="5" walkingareas="true" limitTurnSpeed="5.50" xmlns:xsi="http://www.w3.org/2001/XMLSchema-instance" xsi:noNamespaceSchemaLocation="http://sumo.dlr.de/xsd/net_file.xsd">

    <location netOffset="162.76,227.57" convBoundary="-33.03,-10.73,399.30,438.42" origBoundary="-162.29,-227.19,211.62,211.46" projParameter="!"/>

    <edge id=":-11.149.92_0" function="internal">
        <lane id=":-11.149.92_0_0" index="0" disallow="pedestrian" speed="13.89" length="8.36" shape="94.78,224.70 102.77,224.50"/>
        <lane id=":-11.149.92_0_1" index="1" disallow="pedestrian" speed="13.89" length="8.36" shape="94.78,224.70 97.23,225.15 98.78,226.19 100.33,227.23 102.78,227.70"/>
    </edge>
    <edge id=":-11.149.92_w0" function="walkingarea">
        <lane id=":-11.149.92_w0_0" index="0" allow="pedestrian" speed="1.00" length="8.02" width="2.00" shape="102.77,222.90 102.76,220.90 94.74,221.10 94.76,223.10"/>
    </edge>
    <edge id=":-3.213.65_0" function="internal">
        <lane id=":-3.213.65_0_0" index="0" disallow="pedestrian" speed="13.89" length="8.36" shape="166.11,167.32 166.23,175.31"/>
        <lane id=":-3.213.65_0_1" index="1" disallow="pedestrian" speed="13.89" length="8.36" shape="166.11,167.32 165.65,169.77 164.59,171.31 163.52,172.85 163.03,175.30"/>
    </edge>
    <edge id=":-3.213.65_w0" function="walkingarea">
        <lane id=":-3.213.65_w0_0" index="0" allow="pedestrian" speed="1.00" length="8.02" width="2.00" shape="167.83,175.32 169.83,175.32 169.71,167.28 167.71,167.31"/>
    </edge>
    <edge id=":-7.191.49_0" function="internal">
        <lane id=":-7.191.49_0_0" index="0" disallow="pedestrian" speed="13.89" length="8.40" shape="159.67,301.11 159.64,293.12"/>
        <lane id=":-7.191.49_0_1" index="1" disallow="pedestrian" speed="13.89" length="8.40" shape="159.67,301.11 160.15,298.65 161.24,297.11 162.34,295.57 162.84,293.11"/>
    </edge>
    <edge id=":-7.191.49_w0" function="walkingarea">
        <lane id=":-7.191.49_w0_0" index="0" allow="pedestrian" speed="1.00" length="8.01" width="2.00" shape="158.04,293.12 156.04,293.12 156.07,301.14 158.07,301.13"/>
    </edge>
    <edge id=":-9.191.77_0" function="internal">
        <lane id=":-9.191.77_0_0" index="0" disallow="pedestrian" speed="13.89" length="8.40" shape="236.34,231.23 228.34,231.19"/>
        <lane id=":-9.191.77_0_1" index="1" disallow="pedestrian" speed="13.89" length="8.40" shape="236.34,231.23 233.88,230.72 232.35,229.61 230.82,228.51 228.36,227.99"/>
    </edge>
    <edge id=":-9.191.77_w0" function="walkingarea">
        <lane id=":-9.191.77_w0_0" index="0" allow="pedestrian" speed="1.00" length="8.00" width="2.00" shape="228.33,232.79 228.32,234.79 236.32,234.83 236.33,232.83"/>
    </edge>
    <edge id=":1_0" function="internal">
        <lane id=":1_0_0" index="0" disallow="pedestrian" speed="6.53" length="9.15" shape="159.57,236.47 159.22,233.96 158.16,232.17 156.40,231.11 153.94,230.77"/>
    </edge>
    <edge id=":1_1" function="internal">
        <lane id=":1_1_0" index="0" disallow="pedestrian" speed="13.89" length="17.78" shape="159.57,236.47 159.54,218.69"/>
    </edge>
    <edge id=":1_2" function="internal">
        <lane id=":1_2_0" index="0" disallow="pedestrian" speed="8.68" length="16.96" shape="162.77,236.45 163.32,231.17 164.98,227.40 167.76,225.15 171.65,224.42"/>
    </edge>
    <edge id=":1_3" function="internal">
        <lane id=":1_3_0" index="0" disallow="pedestrian" speed="6.49" length="9.07" shape="171.62,230.83 169.15,231.16 167.39,232.21 166.35,233.97 166.01,236.43"/>
    </edge>
    <edge id=":1_4" function="internal">
        <lane id=":1_4_0" index="0" disallow="pedestrian" speed="13.89" length="17.68" shape="171.62,230.83 153.94,230.77"/>
    </edge>
    <edge id=":1_5" function="internal">
        <lane id=":1_5_0" index="0" disallow="pedestrian" speed="8.75" length="16.98" shape="171.63,227.63 166.37,227.04 162.60,225.35 160.32,222.57 159.54,218.69"/>
    </edge>
    <edge id=":1_6" function="internal">
        <lane id=":1_6_0" index="0" disallow="pedestrian" speed="6.56" length="9.17" shape="166.05,218.64 166.39,221.16 167.44,222.96 169.19,224.04 171.65,224.42"/>
    </edge>
    <edge id=":1_7" function="internal">
        <lane id=":1_7_0" index="0" disallow="pedestrian" speed="13.89" length="17.79" shape="166.05,218.64 166.01,236.43"/>
    </edge>
    <edge id=":1_8" function="internal">
        <lane id=":1_8_0" index="0" disallow="pedestrian" speed="8.75" length="16.98" shape="162.85,218.67 162.27,223.93 160.60,227.71 157.82,229.99 153.94,230.77"/>
    </edge>
    <edge id=":1_9" function="internal">
        <lane id=":1_9_0" index="0" disallow="pedestrian" speed="6.53" length="9.12" shape="153.88,224.32 156.37,223.96 158.15,222.90 159.20,221.15 159.54,218.69"/>
    </edge>
    <edge id=":1_10" function="internal">
        <lane id=":1_10_0" index="0" disallow="pedestrian" speed="13.89" length="17.77" shape="153.88,224.32 171.65,224.42"/>
    </edge>
    <edge id=":1_11" function="internal">
        <lane id=":1_11_0" index="0" disallow="pedestrian" speed="8.72" length="17.02" shape="153.91,227.52 159.18,228.06 162.96,229.73 165.23,232.52 166.01,236.43"/>
    </edge>
    <edge id=":1_w0" function="walkingarea">
        <lane id=":1_w0_0" index="0" allow="pedestrian" speed="1.00" length="4.33" width="2.00" shape="153.95,232.37 153.97,234.37 155.97,236.48 157.97,236.48 157.86,235.21 157.52,234.18 156.96,233.38 156.18,232.81 155.18,232.48"/>
    </edge>
    <edge id=":1_w1" function="walkingarea">
        <lane id=":1_w1_0" index="0" allow="pedestrian" speed="1.00" length="4.23" width="2.00" shape="167.61,236.42 169.61,236.41 171.60,234.43 171.61,232.43 170.38,232.53 169.37,232.86 168.60,233.41 168.04,234.19 167.71,235.20"/>
    </edge>
    <edge id=":1_w2" function="walkingarea">
        <lane id=":1_w2_0" index="0" allow="pedestrian" speed="1.00" length="4.39" width="2.00" shape="171.66,222.82 171.67,220.82 169.65,218.63 167.65,218.62 167.75,219.92 168.09,220.95 168.64,221.76 169.42,222.34 170.43,222.69"/>
    </edge>
    <edge id=":1_w3" function="walkingarea">
        <lane id=":1_w3_0" index="0" allow="pedestrian" speed="1.00" length="4.32" width="2.00" shape="157.94,218.70 155.94,218.72 153.85,220.72 153.86,222.72 155.12,222.61 156.15,222.27 156.94,221.71 157.50,220.93 157.84,219.93"/>
    </edge>
    <edge id=":10_0" function="internal">
        <lane id=":10_0_0" index="0" disallow="pedestrian" speed="4.68" length="9.16" shape="-32.53,232.46 -34.90,230.92 -35.70,229.36 -34.93,227.79 -32.60,226.19"/>
    </edge>
    <edge id=":10_w0" function="walkingarea">
        <lane id=":10_w0_0" index="0" allow="pedestrian" speed="1.00" length="11.47" width="2.00" shape="-32.62,224.59 -32.64,222.60 -32.50,236.06 -32.52,234.06"/>
    </edge>
    <edge id=":2_c0" function="crossing" crossingEdges="-3">
        <lane id=":2_c0_0" index="0" allow="pedestrian" speed="1.00" length="3.20" width="4.00" shape="165.79,-12.41 162.59,-12.38"/>
    </edge>
    <edge id=":2_c1" function="crossing" crossingEdges="3">
        <lane id=":2_c1_0" index="0" allow="pedestrian" speed="1.00" length="3.20" width="4.00" shape="159.47,-12.35 156.27,-12.33"/>
    </edge>
    <edge id=":2_w0" function="walkingarea">
        <lane id=":2_w0_0" index="0" allow="pedestrian" speed="1.00" length="7.82" width="4.00" shape="165.77,-14.41 165.81,-10.41 167.81,-10.43 154.29,-10.31 156.29,-10.33 156.26,-14.33"/>
    </edge>
    <edge id=":2_w1" function="walkingarea">
        <lane id=":2_w1_0" index="0" allow="pedestrian" speed="1.00" length="3.12" width="4.00" shape="162.57,-14.38 162.61,-10.38 159.49,-10.35 159.46,-14.35"/>
    </edge>
    <edge id=":6_0" function="internal">
        <lane id=":6_0_0" index="0" disallow="pedestrian" speed="4.72" length="9.35" shape="167.09,438.38 165.51,440.80 163.91,441.61 162.31,440.82 160.69,438.43"/>
    </edge>
    <edge id=":6_w0" function="walkingarea">
        <lane id=":6_w0_0" index="0" allow="pedestrian" speed="1.00" length="11.60" width="2.00" shape="159.09,438.44 157.09,438.46 170.69,438.36 168.69,438.37"/>
    </edge>
    <edge id=":8_0" function="internal">
        <lane id=":8_0_0" index="0" disallow="pedestrian" speed="4.71" length="9.33" shape="399.31,225.62 401.68,227.25 402.46,228.86 401.64,230.44 399.22,232.01"/>
    </edge>
    <edge id=":8_w0" function="walkingarea">
        <lane id=":8_w0_0" index="0" allow="pedestrian" speed="1.00" length="11.59" width="2.00" shape="399.22,233.61 399.21,235.61 399.33,222.02 399.32,224.02"/>
    </edge>

    <edge id="-11" from="10" to="-11.149.92" priority="-1" shape="-33.03,227.80 98.32,226.26">
        <lane id="-11_0" index="0" allow="pedestrian" speed="13.89" length="127.38" width="2.00" shape="-32.63,223.59 94.75,222.10"/>
        <lane id="-11_1" index="1" disallow="pedestrian" speed="13.89" length="127.38" shape="-32.60,226.19 94.78,224.70"/>
    </edge>
    <edge id="-11.149.92" from="-11.149.92" to="1" priority="-1" shape="99.27,229.31 163.24,229.09">
        <lane id="-11.149.92_0" index="0" allow="pedestrian" speed="13.89" length="51.11" width="2.00" shape="102.76,221.90 153.85,221.72"/>
        <lane id="-11.149.92_1" index="1" disallow="pedestrian" speed="13.89" length="51.11" shape="102.77,224.50 153.88,224.32"/>
        <lane id="-11.149.92_2" index="2" disallow="pedestrian" speed="13.89" length="51.11" shape="102.78,227.70 153.91,227.52"/>
    </edge>
    <edge id="-3" from="2" to="-3.213.65" priority="-1" shape="162.61,-10.73 164.55,170.95">
        <lane id="-3_0" index="0" allow="pedestrian" speed="13.89" length="177.73" width="2.00" shape="166.81,-10.42 168.71,167.30"/>
        <lane id="-3_1" index="1" disallow="pedestrian" speed="13.89" length="177.73" shape="164.21,-10.39 166.11,167.32"/>
    </edge>
    <edge id="-3.213.65" from="-3.213.65" to="1" priority="-1" shape="161.44,171.69 161.21,227.94">
        <lane id="-3.213.65_0" index="0" allow="pedestrian" speed="13.89" length="43.34" width="2.00" shape="168.83,175.32 168.65,218.62"/>
        <lane id="-3.213.65_1" index="1" disallow="pedestrian" speed="13.89" length="43.34" shape="166.23,175.31 166.05,218.64"/>
        <lane id="-3.213.65_2" index="2" disallow="pedestrian" speed="13.89" length="43.34" shape="163.03,175.30 162.85,218.67"/>
    </edge>
    <edge id="-7" from="6" to="-7.191.49" priority="-1" shape="162.29,438.42 161.24,297.13">
        <lane id="-7_0" index="0" allow="pedestrian" speed="13.89" length="137.32" width="2.00" shape="158.09,438.45 157.07,301.13"/>
        <lane id="-7_1" index="1" disallow="pedestrian" speed="13.89" length="137.32" shape="160.69,438.43 159.67,301.11"/>
    </edge>
    <edge id="-7.191.49" from="-7.191.49" to="1" priority="-1" shape="164.44,297.08 164.36,227.54">
        <lane id="-7.191.49_0" index="0" allow="pedestrian" speed="13.89" length="56.65" width="2.00" shape="157.04,293.12 156.97,236.48"/>
        <lane id="-7.191.49_1" index="1" disallow="pedestrian" speed="13.89" length="56.65" shape="159.64,293.12 159.57,236.47"/>
        <lane id="-7.191.49_2" index="2" disallow="pedestrian" speed="13.89" length="56.65" shape="162.84,293.11 162.77,236.45"/>
    </edge>
    <edge id="-9" from="8" to="-9.191.77" priority="-1" shape="399.18,230.41 232.30,229.61">
        <lane id="-9_0" index="0" allow="pedestrian" speed="13.89" length="162.89" width="2.00" shape="399.21,234.61 236.33,233.83"/>
        <lane id="-9_1" index="1" disallow="pedestrian" speed="13.89" length="162.89" shape="399.22,232.01 236.34,231.23"/>
    </edge>
    <edge id="-9.191.77" from="-9.191.77" to="1" priority="-1" shape="232.42,226.42 162.83,225.97">
        <lane id="-9.191.77_0" index="0" allow="pedestrian" speed="13.89" length="56.73" width="2.00" shape="228.32,233.79 171.60,233.43"/>
        <lane id="-9.191.77_1" index="1" disallow="pedestrian" speed="13.89" length="56.73" shape="228.34,231.19 171.62,230.83"/>
        <lane id="-9.191.77_2" index="2" disallow="pedestrian" speed="13.89" length="56.73" shape="228.36,227.99 171.63,227.63"/>
    </edge>
    <edge id="11" from="1" to="10" priority="-1" shape="163.24,229.09 -32.08,230.86">
        <lane id="11_0" index="0" allow="pedestrian" speed="13.89" length="186.47" width="2.00" shape="153.96,233.37 -32.51,235.06"/>
        <lane id="11_1" index="1" disallow="pedestrian" speed="13.89" length="186.47" shape="153.94,230.77 -32.53,232.46"/>
    </edge>
    <edge id="3" from="1" to="2" priority="-1" shape="161.21,227.94 159.49,-9.98">
        <lane id="3_0" index="0" allow="pedestrian" speed="13.89" length="229.03" width="2.00" shape="156.94,218.71 155.29,-10.32"/>
        <lane id="3_1" index="1" disallow="pedestrian" speed="13.89" length="229.03" shape="159.54,218.69 157.89,-10.34"/>
    </edge>
    <edge id="7" from="1" to="6" priority="-1" shape="164.36,227.54 165.49,438.37">
        <lane id="7_0" index="0" allow="pedestrian" speed="13.89" length="201.95" width="2.00" shape="168.61,236.42 169.69,438.37"/>
        <lane id="7_1" index="1" disallow="pedestrian" speed="13.89" length="201.95" shape="166.01,236.43 167.09,438.38"/>
    </edge>
    <edge id="9" from="1" to="8" priority="-1" shape="162.83,225.97 399.30,227.22">
        <lane id="9_0" index="0" allow="pedestrian" speed="13.89" length="227.66" width="2.00" shape="171.66,221.82 399.32,223.02"/>
        <lane id="9_1" index="1" disallow="pedestrian" speed="13.89" length="227.66" shape="171.65,224.42 399.31,225.62"/>
    </edge>

    <tlLogic id="1" type="static" programID="0" offset="0">
        <phase duration="15" state="rrrrGGrgrrrrGGr"/>
        <phase duration="3"  state="rrrryyryrrrryyr"/>
        <phase duration="15" state="GGrgrrrrGGrgrrr"/>
        <phase duration="3"  state="yyryrrrryyryrrr"/>
        <phase duration="15" state="rrGgGrrrrrGgGrr"/>
        <phase duration="3"  state="rryyyrrrrryyyrr"/>
        <phase duration="15" state="GrrgrrGGGrrgrrG"/>
        <phase duration="3"  state="yrryrryyyrryrry"/>
    </tlLogic>

    <junction id="-11.149.92" type="priority" x="98.79" y="227.78" incLanes="-11_0 -11_1" intLanes=":-11.149.92_0_0 :-11.149.92_0_1" shape="102.79,229.30 102.76,220.90 94.74,221.10 94.80,226.30 97.82,227.06 98.79,227.79 99.77,228.52 101.01,229.08">
        <request index="0" response="00" foes="00" cont="0"/>
        <request index="1" response="00" foes="00" cont="0"/>
    </junction>
    <junction id="-3.213.65" type="priority" x="162.99" y="171.32" incLanes="-3_0 -3_1" intLanes=":-3.213.65_0_0 :-3.213.65_0_1" shape="169.71,167.28 164.51,167.34 163.74,170.35 162.99,171.31 162.24,172.28 161.66,173.52 161.43,175.29 169.83,175.32">
        <request index="0" response="00" foes="00" cont="0"/>
        <request index="1" response="00" foes="00" cont="0"/>
    </junction>
    <junction id="-7.191.49" type="priority" x="162.84" y="297.10" incLanes="-7_0 -7_1" intLanes=":-7.191.49_0_0 :-7.191.49_0_1" shape="156.07,301.14 161.27,301.10 162.08,298.08 163.61,296.14 164.20,294.90 164.44,293.11 156.04,293.12">
        <request index="0" response="00" foes="00" cont="0"/>
        <request index="1" response="00" foes="00" cont="0"/>
    </junction>
    <junction id="-9.191.77" type="priority" x="232.36" y="228.02" incLanes="-9_0 -9_1" intLanes=":-9.191.77_0_0 :-9.191.77_0_1" shape="236.32,234.83 236.35,229.63 233.32,228.79 231.40,227.24 230.16,226.64 228.37,226.39 228.32,234.79">
        <request index="0" response="00" foes="00" cont="0"/>
        <request index="1" response="00" foes="00" cont="0"/>
    </junction>
    <junction id="1" type="traffic_light" x="162.76" y="227.57" incLanes="-7.191.49_0 -7.191.49_1 -7.191.49_2 -9.191.77_0 -9.191.77_1 -9.191.77_2 -3.213.65_0 -3.213.65_1 -3.213.65_2 -11.149.92_0 -11.149.92_1 -11.149.92_2" intLanes=":1_0_0 :1_1_0 :1_2_0 :1_3_0 :1_4_0 :1_5_0 :1_6_0 :1_7_0 :1_8_0 :1_9_0 :1_10_0 :1_11_0" shape="155.97,236.49 169.61,236.41 169.82,235.30 170.10,234.92 170.49,234.64 170.99,234.48 171.60,234.43 171.67,220.82 170.54,220.57 170.15,220.26 169.87,219.83 169.70,219.29 169.65,218.62 155.94,218.72 155.72,219.83 155.43,220.22 155.02,220.50 154.49,220.66 153.84,220.72 153.97,234.37 155.08,234.60 155.47,234.89 155.75,235.31 155.91,235.84">
        <request index="0"  response="000000000000" foes="000100010000" cont="0"/>
        <request index="1"  response="000000000000" foes="111100110000" cont="0"/>
        <request index="2"  response="000011000000" foes="110011110000" cont="0"/>
        <request index="3"  response="000010000000" foes="100010000000" cont="0"/>
        <request index="4"  response="000110000111" foes="100110000111" cont="0"/>
        <request index="5"  response="011110000110" foes="011110000110" cont="0"/>
        <request index="6"  response="000000000000" foes="010000000100" cont="0"/>
        <request index="7"  response="000000000000" foes="110000111100" cont="0"/>
        <request index="8"  response="000000000011" foes="110000110011" cont="0"/>
        <request index="9"  response="000000000010" foes="000000100010" cont="0"/>
        <request index="10" response="000111000110" foes="000111100110" cont="0"/>
        <request index="11" response="000110011110" foes="000110011110" cont="0"/>
    </junction>
    <junction id="10" type="priority" x="-32.56" y="229.33" incLanes="11_0 11_1" intLanes=":10_0_0" shape="-32.58,227.79 -32.64,222.60 -32.50,236.06 -32.55,230.86">
        <request index="0" response="0" foes="0" cont="0"/>
    </junction>
    <junction id="2" type="dead_end" x="161.05" y="-10.36" incLanes="3_0 3_1 :2_w0_0 :2_w1_0" intLanes="" shape="162.61,-10.38 167.81,-10.43 154.29,-10.31 159.49,-10.35"/>
    <junction id="6" type="priority" x="163.89" y="438.40" incLanes="7_0 7_1" intLanes=":6_0_0" shape="162.29,438.41 157.09,438.45 170.69,438.36 165.49,438.39">
        <request index="0" response="0" foes="0" cont="0"/>
    </junction>
    <junction id="8" type="priority" x="399.24" y="228.82" incLanes="9_0 9_1" intLanes=":8_0_0" shape="399.23,230.41 399.21,235.61 399.28,222.02">
        <request index="0" response="0" foes="0" cont="0"/>
    </junction>

    <connection from="-11" to="-11.149.92" fromLane="1" toLane="1" via=":-11.149.92_0_0" dir="s" state="M"/>
    <connection from="-11" to="-11.149.92" fromLane="1" toLane="2" via=":-11.149.92_0_1" dir="s" state="M"/>
    <connection from="-11.149.92" to="3" fromLane="1" toLane="1" via=":1_9_0" tl="1" linkIndex="12" dir="r" state="o"/>
    <connection from="-11.149.92" to="9" fromLane="1" toLane="1" via=":1_10_0" tl="1" linkIndex="13" dir="s" state="o"/>
    <connection from="-11.149.92" to="7" fromLane="2" toLane="1" via=":1_11_0" tl="1" linkIndex="14" dir="l" state="o"/>
    <connection from="-3" to="-3.213.65" fromLane="1" toLane="1" via=":-3.213.65_0_0" dir="s" state="M"/>
    <connection from="-3" to="-3.213.65" fromLane="1" toLane="2" via=":-3.213.65_0_1" dir="s" state="M"/>
    <connection from="-3.213.65" to="9" fromLane="1" toLane="1" via=":1_6_0" tl="1" linkIndex="8" dir="r" state="O"/>
    <connection from="-3.213.65" to="7" fromLane="1" toLane="1" via=":1_7_0" tl="1" linkIndex="9" dir="s" state="O"/>
    <connection from="-3.213.65" to="11" fromLane="2" toLane="1" via=":1_8_0" tl="1" linkIndex="10" dir="l" state="o"/>
    <connection from="-7" to="-7.191.49" fromLane="1" toLane="1" via=":-7.191.49_0_0" dir="s" state="M"/>
    <connection from="-7" to="-7.191.49" fromLane="1" toLane="2" via=":-7.191.49_0_1" dir="s" state="M"/>
    <connection from="-7.191.49" to="11" fromLane="1" toLane="1" via=":1_0_0" tl="1" linkIndex="0" dir="r" state="O"/>
    <connection from="-7.191.49" to="3" fromLane="1" toLane="1" via=":1_1_0" tl="1" linkIndex="1" dir="s" state="O"/>
    <connection from="-7.191.49" to="9" fromLane="2" toLane="1" via=":1_2_0" tl="1" linkIndex="2" dir="l" state="o"/>
    <connection from="-9" to="-9.191.77" fromLane="1" toLane="1" via=":-9.191.77_0_0" dir="s" state="M"/>
    <connection from="-9" to="-9.191.77" fromLane="1" toLane="2" via=":-9.191.77_0_1" dir="s" state="M"/>
    <connection from="-9.191.77" to="7" fromLane="1" toLane="1" via=":1_3_0" tl="1" linkIndex="4" dir="r" state="o"/>
    <connection from="-9.191.77" to="11" fromLane="1" toLane="1" via=":1_4_0" tl="1" linkIndex="5" dir="s" state="o"/>
    <connection from="-9.191.77" to="3" fromLane="2" toLane="1" via=":1_5_0" tl="1" linkIndex="6" dir="l" state="o"/>
    <connection from="11" to="-11" fromLane="1" toLane="1" via=":10_0_0" dir="t" state="M"/>
    <connection from="7" to="-7" fromLane="1" toLane="1" via=":6_0_0" dir="t" state="M"/>
    <connection from="9" to="-9" fromLane="1" toLane="1" via=":8_0_0" dir="t" state="M"/>

    <connection from=":-11.149.92_0" to="-11.149.92" fromLane="0" toLane="1" dir="s" state="M"/>
    <connection from=":-11.149.92_0" to="-11.149.92" fromLane="1" toLane="2" dir="s" state="M"/>
    <connection from=":-3.213.65_0" to="-3.213.65" fromLane="0" toLane="1" dir="s" state="M"/>
    <connection from=":-3.213.65_0" to="-3.213.65" fromLane="1" toLane="2" dir="s" state="M"/>
    <connection from=":-7.191.49_0" to="-7.191.49" fromLane="0" toLane="1" dir="s" state="M"/>
    <connection from=":-7.191.49_0" to="-7.191.49" fromLane="1" toLane="2" dir="s" state="M"/>
    <connection from=":-9.191.77_0" to="-9.191.77" fromLane="0" toLane="1" dir="s" state="M"/>
    <connection from=":-9.191.77_0" to="-9.191.77" fromLane="1" toLane="2" dir="s" state="M"/>
    <connection from=":1_0" to="11" fromLane="0" toLane="1" dir="r" state="M"/>
    <connection from=":1_1" to="3" fromLane="0" toLane="1" dir="s" state="M"/>
    <connection from=":1_2" to="9" fromLane="0" toLane="1" dir="l" state="M"/>
    <connection from=":1_3" to="7" fromLane="0" toLane="1" dir="r" state="M"/>
    <connection from=":1_4" to="11" fromLane="0" toLane="1" dir="s" state="M"/>
    <connection from=":1_5" to="3" fromLane="0" toLane="1" dir="l" state="M"/>
    <connection from=":1_6" to="9" fromLane="0" toLane="1" dir="r" state="M"/>
    <connection from=":1_7" to="7" fromLane="0" toLane="1" dir="s" state="M"/>
    <connection from=":1_8" to="11" fromLane="0" toLane="1" dir="l" state="M"/>
    <connection from=":1_9" to="3" fromLane="0" toLane="1" dir="r" state="M"/>
    <connection from=":1_10" to="9" fromLane="0" toLane="1" dir="s" state="M"/>
    <connection from=":1_11" to="7" fromLane="0" toLane="1" dir="l" state="M"/>
    <connection from=":10_0" to="-11" fromLane="0" toLane="1" dir="t" state="M"/>
    <connection from=":6_0" to="-7" fromLane="0" toLane="1" dir="t" state="M"/>
    <connection from=":8_0" to="-9" fromLane="0" toLane="1" dir="t" state="M"/>

    <connection from=":-11.149.92_w0" to="-11.149.92" fromLane="0" toLane="0" dir="s" state="M"/>
    <connection from="-11" to=":-11.149.92_w0" fromLane="0" toLane="0" dir="s" state="M"/>
    <connection from=":-3.213.65_w0" to="-3.213.65" fromLane="0" toLane="0" dir="s" state="M"/>
    <connection from="-3" to=":-3.213.65_w0" fromLane="0" toLane="0" dir="s" state="M"/>
    <connection from=":-7.191.49_w0" to="-7.191.49" fromLane="0" toLane="0" dir="s" state="M"/>
    <connection from="-7" to=":-7.191.49_w0" fromLane="0" toLane="0" dir="s" state="M"/>
    <connection from=":-9.191.77_w0" to="-9.191.77" fromLane="0" toLane="0" dir="s" state="M"/>
    <connection from="-9" to=":-9.191.77_w0" fromLane="0" toLane="0" dir="s" state="M"/>
    <connection from=":1_w0" to="11" fromLane="0" toLane="0" dir="s" state="M"/>
    <connection from="-7.191.49" to=":1_w0" fromLane="0" toLane="0" dir="s" state="M"/>
    <connection from=":1_w1" to="7" fromLane="0" toLane="0" dir="s" state="M"/>
    <connection from="-9.191.77" to=":1_w1" fromLane="0" toLane="0" dir="s" state="M"/>
    <connection from=":1_w2" to="9" fromLane="0" toLane="0" dir="s" state="M"/>
    <connection from="-3.213.65" to=":1_w2" fromLane="0" toLane="0" dir="s" state="M"/>
    <connection from=":1_w3" to="3" fromLane="0" toLane="0" dir="s" state="M"/>
    <connection from="-11.149.92" to=":1_w3" fromLane="0" toLane="0" dir="s" state="M"/>
    <connection from=":10_w0" to="-11" fromLane="0" toLane="0" dir="s" state="M"/>
    <connection from="11" to=":10_w0" fromLane="0" toLane="0" dir="s" state="M"/>
    <connection from=":2_c0" to=":2_w1" fromLane="0" toLane="0" dir="s" state="M"/>
    <connection from=":2_c1" to=":2_w0" fromLane="0" toLane="0" dir="s" state="M"/>
    <connection from=":2_w0" to=":2_c0" fromLane="0" toLane="0" dir="s" state="m"/>
    <connection from=":2_w0" to="-3" fromLane="0" toLane="0" dir="s" state="M"/>
    <connection from="3" to=":2_w0" fromLane="0" toLane="0" dir="s" state="M"/>
    <connection from=":2_w1" to=":2_c1" fromLane="0" toLane="0" dir="s" state="m"/>
    <connection from=":6_w0" to="-7" fromLane="0" toLane="0" dir="s" state="M"/>
    <connection from="7" to=":6_w0" fromLane="0" toLane="0" dir="s" state="M"/>
    <connection from=":8_w0" to="-9" fromLane="0" toLane="0" dir="s" state="M"/>
    <connection from="9" to=":8_w0" fromLane="0" toLane="0" dir="s" state="M"/>
</net>
