<?xml version="1.0" encoding="UTF-8"?>

<!-- generated on 11/20/20 22:43:08 by Eclipse SUMO netedit Version 1.7.0
<configuration xmlns:xsi="http://www.w3.org/2001/XMLSchema-instance" xsi:noNamespaceSchemaLocation="http://sumo.dlr.de/xsd/netconvertConfiguration.xsd">

    <input>
        <sumo-net-file value="D:\sumo\sin\sin.net.xml"/>
    </input>

    <output>
        <output-file value="D:\sumo\sin\sin.net.xml"/>
    </output>

    <processing>
        <geometry.min-radius.fix.railways value="false"/>
        <geometry.max-grade.fix value="false"/>
        <offset.disable-normalization value="true"/>
        <lefthand value="false"/>
    </processing>

    <junctions>
        <no-internal-links value="false"/>
        <no-turnarounds value="true"/>
        <junctions.corner-detail value="5"/>
        <junctions.limit-turn-speed value="5.5"/>
        <rectangular-lane-cut value="false"/>
    </junctions>

    <pedestrian>
        <walkingareas value="true"/>
    </pedestrian>

    <netedit>
        <additional-files value="D:\sumo\sin\sin.net.add.xml"/>
    </netedit>

    <report>
        <aggregate-warnings value="5"/>
    </report>

</configuration>
-->

<net version="1.6" junctionCornerDetail="5" walkingareas="true" limitTurnSpeed="5.50" xmlns:xsi="http://www.w3.org/2001/XMLSchema-instance" xsi:noNamespaceSchemaLocation="http://sumo.dlr.de/xsd/net_file.xsd">

    <location netOffset="883.72,865.03" convBoundary="190.03,161.41,1781.44,1619.02" origBoundary="-882.72,-864.89,897.66,899.36" projParameter="!"/>

    <edge id=":-1029.156.99_0" function="internal">
        <lane id=":-1029.156.99_0_0" index="0" disallow="pedestrian" speed="13.89" length="7.59" shape="651.92,1039.69 647.85,1033.81"/>
        <lane id=":-1029.156.99_0_1" index="1" disallow="pedestrian" speed="13.89" length="7.59" shape="651.92,1039.69 651.07,1037.58 651.20,1035.84 651.34,1034.10 650.48,1031.99"/>
    </edge>
    <edge id=":-1029.156.99_w0" function="walkingarea">
        <lane id=":-1029.156.99_w0_0" index="0" allow="pedestrian" speed="1.00" length="7.15" width="2.00" shape="646.54,1034.72 644.89,1035.86 648.96,1041.74 650.60,1040.60"/>
    </edge>
    <edge id=":-1057.221.33_0" function="internal">
        <lane id=":-1057.221.33_0_0" index="0" disallow="pedestrian" speed="13.89" length="7.85" shape="1252.93,325.02 1251.30,326.67 1250.41,328.04 1249.48,329.37 1247.75,330.89"/>
        <lane id=":-1057.221.33_0_1" index="1" disallow="pedestrian" speed="13.89" length="7.85" shape="1252.93,325.02 1251.01,326.26 1249.48,326.74 1247.91,327.18 1245.89,328.29"/>
    </edge>
    <edge id=":-1057.221.33_w0" function="walkingarea">
        <lane id=":-1057.221.33_w0_0" index="0" allow="pedestrian" speed="1.00" length="8.02" width="2.00" shape="1248.68,332.20 1249.84,333.83 1255.23,327.78 1253.95,326.25 1252.72,327.41 1251.95,328.41 1251.38,329.31 1250.80,330.20 1249.98,331.13"/>
    </edge>
    <edge id=":-1093.151.81_0" function="internal">
        <lane id=":-1093.151.81_0_0" index="0" disallow="pedestrian" speed="13.89" length="8.40" shape="725.46,1181.72 729.96,1175.10"/>
        <lane id=":-1093.151.81_0_1" index="1" disallow="pedestrian" speed="13.89" length="8.40" shape="725.46,1181.72 727.26,1179.96 729.03,1179.31 730.81,1178.66 732.61,1176.90"/>
    </edge>
    <edge id=":-1093.151.81_w0" function="walkingarea">
        <lane id=":-1093.151.81_w0_0" index="0" allow="pedestrian" speed="1.00" length="8.00" width="2.00" shape="728.63,1174.20 726.98,1173.08 722.48,1179.69 724.13,1180.82"/>
    </edge>
    <edge id=":-11.149.92_0" function="internal">
        <lane id=":-11.149.92_0_0" index="0" disallow="pedestrian" speed="13.89" length="8.40" shape="859.85,869.09 867.49,866.72"/>
        <lane id=":-11.149.92_0_1" index="1" disallow="pedestrian" speed="13.89" length="8.40" shape="859.85,869.09 862.35,868.84 864.15,869.43 865.94,870.03 868.44,869.78"/>
    </edge>
    <edge id=":-11.149.92_w0" function="walkingarea">
        <lane id=":-11.149.92_w0_0" index="0" allow="pedestrian" speed="1.00" length="8.00" width="2.00" shape="867.02,865.19 866.43,863.28 858.78,865.65 859.38,867.56"/>
    </edge>
    <edge id=":-117.102.36_0" function="internal">
        <lane id=":-117.102.36_0_0" index="0" disallow="pedestrian" speed="13.89" length="8.36" shape="811.66,536.48 803.97,538.68"/>
        <lane id=":-117.102.36_0_1" index="1" disallow="pedestrian" speed="13.89" length="8.36" shape="811.66,536.48 809.17,536.64 807.41,536.03 805.65,535.42 803.16,535.58"/>
    </edge>
    <edge id=":-117.102.36_w0" function="walkingarea">
        <lane id=":-117.102.36_w0_0" index="0" allow="pedestrian" speed="1.00" length="8.00" width="2.00" shape="804.37,540.23 804.88,542.16 812.57,539.96 812.07,538.03"/>
    </edge>
    <edge id=":-121.191.36_0" function="internal">
        <lane id=":-121.191.36_0_0" index="0" disallow="pedestrian" speed="13.89" length="8.23" shape="1239.41,761.15 1245.60,766.23"/>
        <lane id=":-121.191.36_0_1" index="1" disallow="pedestrian" speed="13.89" length="8.23" shape="1237.40,763.65 1243.55,768.68"/>
        <lane id=":-121.191.36_0_2" index="2" disallow="pedestrian" speed="13.89" length="8.23" shape="1237.40,763.65 1238.99,765.56 1239.47,767.37 1239.94,769.19 1241.50,771.14"/>
    </edge>
    <edge id=":-121.191.36_w0" function="walkingarea">
        <lane id=":-121.191.36_w0_0" index="0" allow="pedestrian" speed="1.00" length="8.06" width="2.00" shape="1246.63,765.00 1247.91,763.47 1241.66,758.35 1240.41,759.90"/>
    </edge>
    <edge id=":-123.134.98_0" function="internal">
        <lane id=":-123.134.98_0_0" index="0" disallow="pedestrian" speed="13.89" length="8.39" shape="1297.05,749.19 1294.49,756.77"/>
        <lane id=":-123.134.98_0_1" index="1" disallow="pedestrian" speed="13.89" length="8.39" shape="1297.05,749.19 1295.80,751.36 1294.27,752.46 1292.73,753.56 1291.46,755.73"/>
    </edge>
    <edge id=":-123.134.98_w0" function="walkingarea">
        <lane id=":-123.134.98_w0_0" index="0" allow="pedestrian" speed="1.00" length="8.02" width="2.00" shape="1296.00,757.28 1297.89,757.93 1300.47,750.33 1298.57,749.70"/>
    </edge>
    <edge id=":-125.166.93_0" function="internal">
        <lane id=":-125.166.93_0_0" index="0" disallow="pedestrian" speed="13.89" length="8.27" shape="1330.74,869.92 1325.38,863.99"/>
        <lane id=":-125.166.93_0_1" index="1" disallow="pedestrian" speed="13.89" length="8.27" shape="1333.12,867.78 1327.76,861.84"/>
        <lane id=":-125.166.93_0_2" index="2" disallow="pedestrian" speed="13.89" length="8.27" shape="1333.12,867.78 1331.84,865.61 1331.63,863.73 1331.41,861.85 1330.13,859.69"/>
    </edge>
    <edge id=":-125.166.93_w0" function="walkingarea">
        <lane id=":-125.166.93_w0_0" index="0" allow="pedestrian" speed="1.00" length="7.99" width="2.00" shape="1324.20,865.06 1322.72,866.40 1328.07,872.33 1329.56,870.99"/>
    </edge>
    <edge id=":-128.94.66_0" function="internal">
        <lane id=":-128.94.66_0_0" index="0" disallow="pedestrian" speed="13.89" length="8.40" shape="1211.83,1077.88 1210.62,1069.97"/>
        <lane id=":-128.94.66_0_1" index="1" disallow="pedestrian" speed="13.89" length="8.40" shape="1211.83,1077.88 1211.95,1075.37 1212.81,1073.68 1213.66,1071.99 1213.79,1069.49"/>
    </edge>
    <edge id=":-128.94.66_w0" function="walkingarea">
        <lane id=":-128.94.66_w0_0" index="0" allow="pedestrian" speed="1.00" length="8.00" width="2.00" shape="1209.04,1070.21 1207.06,1070.51 1208.27,1078.42 1210.25,1078.12"/>
    </edge>
    <edge id=":-13.119.68_0" function="internal">
        <lane id=":-13.119.68_0_0" index="0" disallow="pedestrian" speed="13.89" length="8.20" shape="899.02,672.35 891.52,669.56"/>
        <lane id=":-13.119.68_0_1" index="1" disallow="pedestrian" speed="13.89" length="8.20" shape="900.10,669.34 892.68,666.58"/>
        <lane id=":-13.119.68_0_2" index="2" disallow="pedestrian" speed="13.89" length="8.20" shape="900.10,669.34 897.99,668.06 896.95,666.51 895.93,664.94 893.84,663.59"/>
    </edge>
    <edge id=":-13.119.68_w0" function="walkingarea">
        <lane id=":-13.119.68_w0_0" index="0" allow="pedestrian" speed="1.00" length="8.07" width="2.00" shape="890.94,671.05 890.21,672.91 897.80,675.74 898.48,673.86"/>
    </edge>
    <edge id=":-138.198.95_0" function="internal">
        <lane id=":-138.198.95_0_0" index="0" disallow="pedestrian" speed="13.89" length="8.40" shape="1189.85,1064.74 1196.42,1060.17"/>
        <lane id=":-138.198.95_0_1" index="1" disallow="pedestrian" speed="13.89" length="8.40" shape="1189.85,1064.74 1192.16,1063.75 1194.05,1063.77 1195.94,1063.80 1198.24,1062.80"/>
    </edge>
    <edge id=":-138.198.95_w0" function="walkingarea">
        <lane id=":-138.198.95_w0_0" index="0" allow="pedestrian" speed="1.00" length="8.00" width="2.00" shape="1195.50,1058.86 1194.36,1057.22 1187.79,1061.79 1188.94,1063.43"/>
    </edge>
    <edge id=":-17.208.71_0" function="internal">
        <lane id=":-17.208.71_0_0" index="0" disallow="pedestrian" speed="13.89" length="8.37" shape="1057.68,812.34 1062.24,818.89"/>
        <lane id=":-17.208.71_0_1" index="1" disallow="pedestrian" speed="13.89" length="8.37" shape="1057.68,812.34 1058.69,814.62 1058.67,816.50 1058.63,818.39 1059.60,820.69"/>
    </edge>
    <edge id=":-17.208.71_w0" function="walkingarea">
        <lane id=":-17.208.71_w0_0" index="0" allow="pedestrian" speed="1.00" length="8.03" width="2.00" shape="1063.57,817.99 1065.22,816.86 1060.62,810.26 1058.99,811.41"/>
    </edge>
    <edge id=":-19.175.02_0" function="internal">
        <lane id=":-19.175.02_0_0" index="0" disallow="pedestrian" speed="13.89" length="8.38" shape="1154.77,853.11 1147.35,856.08"/>
        <lane id=":-19.175.02_0_1" index="1" disallow="pedestrian" speed="13.89" length="8.38" shape="1154.77,853.11 1152.32,853.57 1150.49,853.12 1148.65,852.67 1146.19,853.10"/>
    </edge>
    <edge id=":-19.175.02_w0" function="walkingarea">
        <lane id=":-19.175.02_w0_0" index="0" allow="pedestrian" speed="1.00" length="8.02" width="2.00" shape="1147.94,857.57 1148.67,859.43 1156.13,856.45 1155.38,854.59"/>
    </edge>
    <edge id=":-210.128.23_0" function="internal">
        <lane id=":-210.128.23_0_0" index="0" disallow="pedestrian" speed="13.89" length="8.40" shape="1231.02,1067.84 1223.97,1064.06"/>
        <lane id=":-210.128.23_0_1" index="1" disallow="pedestrian" speed="13.89" length="8.40" shape="1231.02,1067.84 1229.08,1066.24 1228.25,1064.54 1227.41,1062.84 1225.48,1061.24"/>
    </edge>
    <edge id=":-210.128.23_w0" function="walkingarea">
        <lane id=":-210.128.23_w0_0" index="0" allow="pedestrian" speed="1.00" length="8.00" width="2.00" shape="1223.21,1065.47 1222.26,1067.23 1229.31,1071.01 1230.26,1069.25"/>
    </edge>
    <edge id=":-25.194.68_0" function="internal">
        <lane id=":-25.194.68_0_0" index="0" disallow="pedestrian" speed="13.89" length="8.38" shape="1118.29,915.50 1114.00,908.76"/>
        <lane id=":-25.194.68_0_1" index="1" disallow="pedestrian" speed="13.89" length="8.38" shape="1118.29,915.50 1117.38,913.17 1117.48,911.29 1117.59,909.40 1116.71,907.06"/>
    </edge>
    <edge id=":-25.194.68_w0" function="walkingarea">
        <lane id=":-25.194.68_w0_0" index="0" allow="pedestrian" speed="1.00" length="8.02" width="2.00" shape="1112.64,909.61 1110.95,910.68 1115.27,917.45 1116.95,916.36"/>
    </edge>
    <edge id=":-3.213.65_0" function="internal">
        <lane id=":-3.213.65_0_0" index="0" disallow="pedestrian" speed="13.89" length="8.41" shape="881.25,840.95 883.10,848.73"/>
        <lane id=":-3.213.65_0_1" index="1" disallow="pedestrian" speed="13.89" length="8.41" shape="881.25,840.95 881.33,843.46 880.61,845.22 879.90,846.97 879.99,849.48"/>
    </edge>
    <edge id=":-3.213.65_w0" function="walkingarea">
        <lane id=":-3.213.65_w0_0" index="0" allow="pedestrian" speed="1.00" length="7.99" width="2.00" shape="884.66,848.36 886.60,847.89 884.75,840.12 882.81,840.58"/>
    </edge>
    <edge id=":-313.145.95_0" function="internal">
        <lane id=":-313.145.95_0_0" index="0" disallow="pedestrian" speed="13.89" length="7.20" shape="913.74,520.96 907.16,519.50"/>
        <lane id=":-313.145.95_0_1" index="1" disallow="pedestrian" speed="13.89" length="7.20" shape="913.74,520.96 911.80,520.02 910.80,518.67 909.80,517.32 907.86,516.38"/>
    </edge>
    <edge id=":-313.145.95_w0" function="walkingarea">
        <lane id=":-313.145.95_w0_0" index="0" allow="pedestrian" speed="1.00" length="6.73" width="2.00" shape="906.82,521.07 906.39,523.02 912.96,524.47 913.39,522.52"/>
    </edge>
    <edge id=":-319.202.58_0" function="internal">
        <lane id=":-319.202.58_0_0" index="0" disallow="pedestrian" speed="13.89" length="8.40" shape="887.08,488.75 889.41,496.40"/>
        <lane id=":-319.202.58_0_1" index="1" disallow="pedestrian" speed="13.89" length="8.40" shape="887.08,488.75 887.31,491.25 886.71,493.04 886.11,494.83 886.34,497.33"/>
    </edge>
    <edge id=":-319.202.58_w0" function="walkingarea">
        <lane id=":-319.202.58_w0_0" index="0" allow="pedestrian" speed="1.00" length="8.00" width="2.00" shape="890.94,495.94 892.85,495.35 890.52,487.70 888.61,488.28"/>
    </edge>
    <edge id=":-325.136.54_0" function="internal">
        <lane id=":-325.136.54_0_0" index="0" disallow="pedestrian" speed="13.89" length="7.20" shape="912.92,502.36 907.26,506.00"/>
        <lane id=":-325.136.54_0_1" index="1" disallow="pedestrian" speed="13.89" length="7.20" shape="912.92,502.36 910.88,503.08 909.22,502.84 907.56,502.60 905.53,503.31"/>
    </edge>
    <edge id=":-325.136.54_w0" function="walkingarea">
        <lane id=":-325.136.54_w0_0" index="0" allow="pedestrian" speed="1.00" length="6.73" width="2.00" shape="908.12,507.35 909.20,509.03 914.87,505.39 913.78,503.71"/>
    </edge>
    <edge id=":-326.112.38_0" function="internal">
        <lane id=":-326.112.38_0_0" index="0" disallow="pedestrian" speed="13.89" length="8.40" shape="1095.48,625.63 1098.90,632.83"/>
        <lane id=":-326.112.38_0_1" index="1" disallow="pedestrian" speed="13.89" length="8.40" shape="1095.48,625.63 1096.12,628.05 1095.77,629.92 1095.42,631.80 1096.03,634.23"/>
    </edge>
    <edge id=":-326.112.38_w0" function="walkingarea">
        <lane id=":-326.112.38_w0_0" index="0" allow="pedestrian" speed="1.00" length="7.90" width="2.00" shape="1100.34,632.12 1102.14,631.24 1098.74,624.10 1096.95,625.00"/>
    </edge>
    <edge id=":-333.157.00_0" function="internal">
        <lane id=":-333.157.00_0_0" index="0" disallow="pedestrian" speed="13.89" length="8.40" shape="904.79,1092.96 898.26,1088.34"/>
        <lane id=":-333.157.00_0_1" index="1" disallow="pedestrian" speed="13.89" length="8.40" shape="904.79,1092.96 903.07,1091.13 902.45,1089.35 901.83,1087.56 900.11,1085.73"/>
    </edge>
    <edge id=":-333.157.00_w0" function="walkingarea">
        <lane id=":-333.157.00_w0_0" index="0" allow="pedestrian" speed="1.00" length="8.00" width="2.00" shape="897.34,1089.65 896.19,1091.28 902.72,1095.90 903.87,1094.27"/>
    </edge>
    <edge id=":-336.84.87_0" function="internal">
        <lane id=":-336.84.87_0_0" index="0" disallow="pedestrian" speed="13.89" length="8.40" shape="1349.01,659.99 1341.09,658.82"/>
        <lane id=":-336.84.87_0_1" index="1" disallow="pedestrian" speed="13.89" length="8.40" shape="1349.01,659.99 1346.64,659.13 1345.28,657.82 1343.92,656.51 1341.56,655.66"/>
    </edge>
    <edge id=":-336.84.87_w0" function="walkingarea">
        <lane id=":-336.84.87_w0_0" index="0" allow="pedestrian" speed="1.00" length="8.00" width="2.00" shape="1340.86,660.41 1340.56,662.39 1348.48,663.55 1348.77,661.57"/>
    </edge>
    <edge id=":-338.99.90_0" function="internal">
        <lane id=":-338.99.90_0_0" index="0" disallow="pedestrian" speed="13.89" length="8.40" shape="1323.80,629.18 1325.49,637.01"/>
        <lane id=":-338.99.90_0_1" index="1" disallow="pedestrian" speed="13.89" length="8.40" shape="1323.80,629.18 1323.83,631.70 1323.08,633.43 1322.33,635.17 1322.36,637.68"/>
    </edge>
    <edge id=":-338.99.90_w0" function="walkingarea">
        <lane id=":-338.99.90_w0_0" index="0" allow="pedestrian" speed="1.00" length="8.00" width="2.00" shape="1327.05,636.67 1329.00,636.25 1327.32,628.43 1325.37,628.85"/>
    </edge>
    <edge id=":-348.147.53_0" function="internal">
        <lane id=":-348.147.53_0_0" index="0" disallow="pedestrian" speed="13.89" length="7.83" shape="1037.47,1155.15 1036.64,1162.51"/>
        <lane id=":-348.147.53_0_1" index="1" disallow="pedestrian" speed="13.89" length="7.83" shape="1037.47,1155.15 1036.71,1157.37 1035.46,1158.65 1034.21,1159.93 1033.46,1162.15"/>
    </edge>
    <edge id=":-348.147.53_w0" function="walkingarea">
        <lane id=":-348.147.53_w0_0" index="0" allow="pedestrian" speed="1.00" length="7.40" width="2.00" shape="1038.23,1162.69 1040.22,1162.91 1041.05,1155.56 1039.06,1155.33"/>
    </edge>
    <edge id=":-349.149.51_0" function="internal">
        <lane id=":-349.149.51_0_0" index="0" disallow="pedestrian" speed="13.89" length="8.40" shape="1364.52,1114.91 1357.52,1118.80"/>
        <lane id=":-349.149.51_0_1" index="1" disallow="pedestrian" speed="13.89" length="8.40" shape="1364.52,1114.91 1362.12,1115.67 1360.24,1115.46 1358.36,1115.24 1355.97,1116.00"/>
    </edge>
    <edge id=":-349.149.51_w0" function="walkingarea">
        <lane id=":-349.149.51_w0_0" index="0" allow="pedestrian" speed="1.00" length="8.00" width="2.00" shape="1358.30,1120.20 1359.27,1121.95 1366.27,1118.06 1365.29,1116.31"/>
    </edge>
    <edge id=":-356.155.54_0" function="internal">
        <lane id=":-356.155.54_0_0" index="0" disallow="pedestrian" speed="13.89" length="8.40" shape="910.55,1070.68 903.10,1073.61"/>
        <lane id=":-356.155.54_0_1" index="1" disallow="pedestrian" speed="13.89" length="8.40" shape="910.55,1070.68 908.07,1071.12 906.24,1070.66 904.40,1070.20 901.93,1070.63"/>
    </edge>
    <edge id=":-356.155.54_w0" function="walkingarea">
        <lane id=":-356.155.54_w0_0" index="0" allow="pedestrian" speed="1.00" length="8.00" width="2.00" shape="903.69,1075.10 904.42,1076.96 911.87,1074.03 911.13,1072.17"/>
    </edge>
    <edge id=":-361.152.84_0" function="internal">
        <lane id=":-361.152.84_0_0" index="0" disallow="pedestrian" speed="13.89" length="8.40" shape="1453.68,669.14 1445.73,670.04"/>
        <lane id=":-361.152.84_0_1" index="1" disallow="pedestrian" speed="13.89" length="8.40" shape="1453.68,669.14 1451.18,668.92 1449.53,668.00 1447.88,667.08 1445.37,666.86"/>
    </edge>
    <edge id=":-361.152.84_w0" function="walkingarea">
        <lane id=":-361.152.84_w0_0" index="0" allow="pedestrian" speed="1.00" length="8.00" width="2.00" shape="1445.91,671.63 1446.13,673.61 1454.08,672.72 1453.86,670.73"/>
    </edge>
    <edge id=":-365.192.58_0" function="internal">
        <lane id=":-365.192.58_0_0" index="0" disallow="pedestrian" speed="13.89" length="8.27" shape="1516.81,1107.45 1513.23,1100.34"/>
        <lane id=":-365.192.58_0_1" index="1" disallow="pedestrian" speed="13.89" length="8.27" shape="1519.68,1106.03 1516.07,1098.88"/>
        <lane id=":-365.192.58_0_2" index="2" disallow="pedestrian" speed="13.89" length="8.27" shape="1519.68,1106.03 1519.03,1103.59 1519.32,1101.71 1519.60,1099.84 1518.92,1097.41"/>
    </edge>
    <edge id=":-365.192.58_w0" function="walkingarea">
        <lane id=":-365.192.58_w0_0" index="0" allow="pedestrian" speed="1.00" length="7.92" width="2.00" shape="1511.80,1101.07 1510.02,1101.98 1513.58,1109.04 1515.37,1108.16"/>
    </edge>
    <edge id=":-379.156.05_0" function="internal">
        <lane id=":-379.156.05_0_0" index="0" disallow="pedestrian" speed="13.89" length="8.31" shape="1518.24,962.45 1515.99,970.06"/>
        <lane id=":-379.156.05_0_1" index="1" disallow="pedestrian" speed="13.89" length="8.31" shape="1518.24,962.45 1517.11,964.65 1515.64,965.79 1514.14,966.93 1512.93,969.10"/>
    </edge>
    <edge id=":-379.156.05_w0" function="walkingarea">
        <lane id=":-379.156.05_w0_0" index="0" allow="pedestrian" speed="1.00" length="8.02" width="2.00" shape="1517.51,970.54 1519.42,971.14 1521.71,963.42 1519.78,962.88"/>
    </edge>
    <edge id=":-38.169.43_0" function="internal">
        <lane id=":-38.169.43_0_0" index="0" disallow="pedestrian" speed="13.89" length="8.34" shape="926.67,584.27 929.82,591.56"/>
        <lane id=":-38.169.43_0_1" index="1" disallow="pedestrian" speed="13.89" length="8.34" shape="926.67,584.27 927.20,586.68 926.81,588.51 926.39,590.34 926.87,592.79"/>
    </edge>
    <edge id=":-38.169.43_w0" function="walkingarea">
        <lane id=":-38.169.43_w0_0" index="0" allow="pedestrian" speed="1.00" length="8.03" width="2.00" shape="931.30,590.95 933.15,590.18 929.95,582.79 928.13,583.61"/>
    </edge>
    <edge id=":-381.101.33_0" function="internal">
        <lane id=":-381.101.33_0_0" index="0" disallow="pedestrian" speed="13.89" length="8.40" shape="1252.19,1161.46 1244.71,1164.31"/>
        <lane id=":-381.101.33_0_1" index="1" disallow="pedestrian" speed="13.89" length="8.40" shape="1252.19,1161.46 1249.71,1161.87 1247.88,1161.39 1246.05,1160.91 1243.57,1161.32"/>
    </edge>
    <edge id=":-381.101.33_w0" function="walkingarea">
        <lane id=":-381.101.33_w0_0" index="0" allow="pedestrian" speed="1.00" length="8.00" width="2.00" shape="1245.28,1165.81 1246.00,1167.67 1253.47,1164.82 1252.76,1162.95"/>
    </edge>
    <edge id=":-383.137.01_0" function="internal">
        <lane id=":-383.137.01_0_0" index="0" disallow="pedestrian" speed="13.89" length="8.40" shape="1210.95,1183.57 1216.02,1177.38"/>
        <lane id=":-383.137.01_0_1" index="1" disallow="pedestrian" speed="13.89" length="8.40" shape="1210.95,1183.57 1212.90,1181.99 1214.72,1181.49 1216.55,1181.00 1218.49,1179.41"/>
    </edge>
    <edge id=":-383.137.01_w0" function="walkingarea">
        <lane id=":-383.137.01_w0_0" index="0" allow="pedestrian" speed="1.00" length="8.00" width="2.00" shape="1214.78,1176.37 1213.23,1175.11 1208.16,1181.30 1209.71,1182.56"/>
    </edge>
    <edge id=":-492.211.61_0" function="internal">
        <lane id=":-492.211.61_0_0" index="0" disallow="pedestrian" speed="13.89" length="8.40" shape="1592.10,671.76 1594.16,664.04"/>
        <lane id=":-492.211.61_0_1" index="1" disallow="pedestrian" speed="13.89" length="8.40" shape="1592.10,671.76 1593.24,669.51 1594.71,668.31 1596.16,667.10 1597.26,664.84"/>
    </edge>
    <edge id=":-492.211.61_w0" function="walkingarea">
        <lane id=":-492.211.61_w0_0" index="0" allow="pedestrian" speed="1.00" length="7.94" width="2.00" shape="1592.61,663.65 1590.67,663.15 1588.63,670.80 1590.56,671.33"/>
    </edge>
    <edge id=":-496.105.61_0" function="internal">
        <lane id=":-496.105.61_0_0" index="0" disallow="pedestrian" speed="13.89" length="8.40" shape="1620.89,663.52 1613.84,659.74"/>
        <lane id=":-496.105.61_0_1" index="1" disallow="pedestrian" speed="13.89" length="8.40" shape="1620.89,663.52 1618.96,661.92 1618.12,660.22 1617.28,658.52 1615.35,656.92"/>
    </edge>
    <edge id=":-496.105.61_w0" function="walkingarea">
        <lane id=":-496.105.61_w0_0" index="0" allow="pedestrian" speed="1.00" length="8.00" width="2.00" shape="1613.08,661.15 1612.14,662.91 1619.19,666.69 1620.13,664.93"/>
    </edge>
    <edge id=":-504.218.42_0" function="internal">
        <lane id=":-504.218.42_0_0" index="0" disallow="pedestrian" speed="13.89" length="8.40" shape="1436.68,645.52 1435.34,653.40"/>
        <lane id=":-504.218.42_0_1" index="1" disallow="pedestrian" speed="13.89" length="8.40" shape="1436.68,645.52 1435.77,647.86 1434.43,649.19 1433.09,650.52 1432.18,652.86"/>
    </edge>
    <edge id=":-504.218.42_w0" function="walkingarea">
        <lane id=":-504.218.42_w0_0" index="0" allow="pedestrian" speed="1.00" length="8.00" width="2.00" shape="1436.91,653.67 1438.88,654.01 1440.23,646.13 1438.26,645.79"/>
    </edge>
    <edge id=":-505.177.89_0" function="internal">
        <lane id=":-505.177.89_0_0" index="0" disallow="pedestrian" speed="13.89" length="8.40" shape="1322.65,526.42 1315.81,530.56"/>
        <lane id=":-505.177.89_0_1" index="1" disallow="pedestrian" speed="13.89" length="8.40" shape="1322.65,526.42 1320.29,527.26 1318.40,527.12 1316.52,526.98 1314.15,527.82"/>
    </edge>
    <edge id=":-505.177.89_w0" function="walkingarea">
        <lane id=":-505.177.89_w0_0" index="0" allow="pedestrian" speed="1.00" length="8.00" width="2.00" shape="1316.64,531.93 1317.68,533.64 1324.52,529.50 1323.48,527.78"/>
    </edge>
    <edge id=":-517.156.98_0" function="internal">
        <lane id=":-517.156.98_0_0" index="0" disallow="pedestrian" speed="13.89" length="8.19" shape="1277.24,529.47 1285.00,530.45"/>
        <lane id=":-517.156.98_0_1" index="1" disallow="pedestrian" speed="13.89" length="8.19" shape="1277.24,529.47 1279.55,530.20 1280.88,531.45 1282.21,532.75 1284.50,533.61"/>
    </edge>
    <edge id=":-517.156.98_w0" function="walkingarea">
        <lane id=":-517.156.98_w0_0" index="0" allow="pedestrian" speed="1.00" length="7.97" width="2.00" shape="1285.24,528.87 1285.55,526.89 1277.59,525.89 1277.39,527.88"/>
    </edge>
    <edge id=":-523.192.23_0" function="internal">
        <lane id=":-523.192.23_0_0" index="0" disallow="pedestrian" speed="13.89" length="8.40" shape="1296.39,512.24 1298.77,519.88"/>
        <lane id=":-523.192.23_0_1" index="1" disallow="pedestrian" speed="13.89" length="8.40" shape="1296.39,512.24 1296.65,514.74 1296.05,516.53 1295.46,518.33 1295.71,520.83"/>
    </edge>
    <edge id=":-523.192.23_w0" function="walkingarea">
        <lane id=":-523.192.23_w0_0" index="0" allow="pedestrian" speed="1.00" length="8.00" width="2.00" shape="1300.30,519.40 1302.21,518.81 1299.83,511.17 1297.92,511.76"/>
    </edge>
    <edge id=":-533.105.95_0" function="internal">
        <lane id=":-533.105.95_0_0" index="0" disallow="pedestrian" speed="13.89" length="8.38" shape="1618.11,1305.39 1614.53,1298.26"/>
        <lane id=":-533.105.95_0_1" index="1" disallow="pedestrian" speed="13.89" length="8.38" shape="1618.11,1305.39 1617.45,1302.98 1617.74,1301.12 1618.04,1299.26 1617.40,1296.84"/>
    </edge>
    <edge id=":-533.105.95_w0" function="walkingarea">
        <lane id=":-533.105.95_w0_0" index="0" allow="pedestrian" speed="1.00" length="8.03" width="2.00" shape="1610.23,1300.39 1608.44,1301.28 1612.05,1308.47 1613.83,1307.56"/>
    </edge>
    <edge id=":-535.167.40_0" function="internal">
        <lane id=":-535.167.40_0_0" index="0" disallow="pedestrian" speed="13.89" length="8.06" shape="1513.27,1243.66 1520.65,1240.97"/>
        <lane id=":-535.167.40_0_1" index="1" disallow="pedestrian" speed="13.89" length="8.06" shape="1513.27,1243.66 1515.63,1243.36 1517.31,1243.79 1519.00,1244.25 1521.40,1244.09"/>
    </edge>
    <edge id=":-535.167.40_w0" function="walkingarea">
        <lane id=":-535.167.40_w0_0" index="0" allow="pedestrian" speed="1.00" length="8.00" width="2.00" shape="1520.28,1239.42 1519.81,1237.47 1512.23,1240.21 1512.81,1242.13"/>
    </edge>
    <edge id=":-569.173.56_0" function="internal">
        <lane id=":-569.173.56_0_0" index="0" disallow="pedestrian" speed="13.89" length="8.38" shape="1649.48,1235.61 1641.50,1235.30"/>
        <lane id=":-569.173.56_0_1" index="1" disallow="pedestrian" speed="13.89" length="8.38" shape="1649.48,1235.61 1647.05,1235.03 1645.57,1233.88 1644.08,1232.72 1641.65,1232.11"/>
    </edge>
    <edge id=":-569.173.56_w0" function="walkingarea">
        <lane id=":-569.173.56_w0_0" index="0" allow="pedestrian" speed="1.00" length="8.02" width="2.00" shape="1641.43,1236.90 1641.34,1238.90 1649.37,1239.21 1649.44,1237.21"/>
    </edge>
    <edge id=":-577.191.19_0" function="internal">
        <lane id=":-577.191.19_0_0" index="0" disallow="pedestrian" speed="13.89" length="8.40" shape="1106.60,1297.14 1113.65,1293.35"/>
        <lane id=":-577.191.19_0_1" index="1" disallow="pedestrian" speed="13.89" length="8.40" shape="1106.60,1297.14 1109.01,1296.41 1110.88,1296.65 1112.76,1296.89 1115.16,1296.17"/>
    </edge>
    <edge id=":-577.191.19_w0" function="walkingarea">
        <lane id=":-577.191.19_w0_0" index="0" allow="pedestrian" speed="1.00" length="8.00" width="2.00" shape="1112.89,1291.94 1111.94,1290.18 1104.89,1293.97 1105.84,1295.73"/>
    </edge>
    <edge id=":-579.166.80_0" function="internal">
        <lane id=":-579.166.80_0_0" index="0" disallow="pedestrian" speed="13.89" length="8.40" shape="1133.17,1312.47 1130.84,1304.82"/>
        <lane id=":-579.166.80_0_1" index="1" disallow="pedestrian" speed="13.89" length="8.40" shape="1133.17,1312.47 1132.93,1309.97 1133.54,1308.18 1134.14,1306.39 1133.90,1303.89"/>
    </edge>
    <edge id=":-579.166.80_w0" function="walkingarea">
        <lane id=":-579.166.80_w0_0" index="0" allow="pedestrian" speed="1.00" length="8.00" width="2.00" shape="1129.31,1305.29 1127.40,1305.87 1129.73,1313.52 1131.64,1312.94"/>
    </edge>
    <edge id=":-585.139.34_0" function="internal">
        <lane id=":-585.139.34_0_0" index="0" disallow="pedestrian" speed="13.89" length="8.40" shape="1333.78,1146.56 1335.47,1138.74"/>
        <lane id=":-585.139.34_0_1" index="1" disallow="pedestrian" speed="13.89" length="8.40" shape="1333.78,1146.56 1334.79,1144.26 1336.19,1142.99 1337.59,1141.72 1338.60,1139.42"/>
    </edge>
    <edge id=":-585.139.34_w0" function="walkingarea">
        <lane id=":-585.139.34_w0_0" index="0" allow="pedestrian" speed="1.00" length="8.00" width="2.00" shape="1333.91,1138.41 1331.96,1137.98 1330.26,1145.80 1332.22,1146.22"/>
    </edge>