<configuration>
	<input>
		<net-file value="sin.net.xml"/>
		<route-files value="generated.rou.xml"/>
		<additional-files value="sin.add.xml"/>
	</input>

	<time>
		<begin value="0"/>
		<end value="3600"/>
	</time>
</configuration>
