<?xml version="1.0" encoding="UTF-8"?>

<!-- generated on 11/22/20 14:58:57 by Eclipse SUMO netedit Version 1.7.0
<configuration xmlns:xsi="http://www.w3.org/2001/XMLSchema-instance" xsi:noNamespaceSchemaLocation="http://sumo.dlr.de/xsd/netconvertConfiguration.xsd">

    <input>
        <sumo-net-file value="D:\sumo\sin\sin.net.xml"/>
    </input>

    <output>
        <output-file value="D:\sumo\sin\sin.net.xml"/>
    </output>

    <processing>
        <geometry.min-radius.fix.railways value="false"/>
        <geometry.max-grade.fix value="false"/>
        <offset.disable-normalization value="true"/>
        <lefthand value="false"/>
    </processing>

    <junctions>
        <no-internal-links value="false"/>
        <no-turnarounds value="true"/>
        <junctions.corner-detail value="5"/>
        <junctions.limit-turn-speed value="5.5"/>
        <rectangular-lane-cut value="false"/>
    </junctions>

    <pedestrian>
        <walkingareas value="true"/>
    </pedestrian>

    <netedit>
        <additional-files value="D:\sumo\sin\sin.net.add.xml"/>
        <route-files value="D:\sumo\sin\drive_through.rou.xml"/>
    </netedit>

    <report>
        <aggregate-warnings value="5"/>
    </report>

</configuration>
-->

<additional xmlns:xsi="http://www.w3.org/2001/XMLSchema-instance" xsi:noNamespaceSchemaLocation="http://sumo.dlr.de/xsd/additional_file.xsd">
    <e1Detector id="d12_1" lane="17.208.71_1" pos="41.72" freq="900.00" file="NUL"/>
    <e1Detector id="d12_2" lane="17.208.71_2" pos="41.51" freq="900.00" file="NUL"/>
    <e1Detector id="d12_3" lane="-64.134.78_3" pos="9.59" freq="900.00" file="NUL"/>
    <e1Detector id="d12_4" lane="-38.169.43_1" pos="52.15" freq="900.00" file="NUL"/>
    <e1Detector id="d12_5" lane="-38.169.43_2" pos="51.93" freq="900.00" file="NUL"/>
    <e1Detector id="d12_6" lane="13.119.68_3" pos="3.20" freq="900.00" file="NUL"/>
    <e1Detector id="d14_1" lane="-117_1" pos="72.77" freq="30.00" file="NUL"/>
    <e1Detector id="d14_2" lane="15.128.29_3" pos="2.26" freq="30.00" file="NUL"/>
    <e1Detector id="d18_1" lane="19.175.02_1" pos="0.09" freq="900.00" file="NUL"/>
    <e1Detector id="d18_2" lane="19.175.02_2" pos="0.03" freq="900.00" file="NUL"/>
    <e1Detector id="d18_3" lane="-125.166.93_3" pos="36.51" freq="900.00" file="NUL"/>
    <e1Detector id="d18_4" lane="-123.134.98_1" pos="1.26" freq="900.00" file="NUL"/>
    <e1Detector id="d18_5" lane="-123.134.98_2" pos="1.35" freq="900.00" file="NUL"/>
    <e1Detector id="d18_6" lane="-121.191.36_3" pos="0.42" freq="900.00" file="NUL"/>
    <e1Detector id="d2_1" lane="3_1" pos="159.74" freq="900.00" file="NUL"/>
    <e1Detector id="d2_2" lane="-15.103_3" pos="2.22" freq="30.00" file="NUL"/>
    <e1Detector id="d343_1" lane="349.149.51_1" pos="0.28" freq="900.00" file="NUL"/>
    <e1Detector id="d343_2" lane="349.149.51_2" pos="0.52" freq="900.00" file="NUL"/>
    <e1Detector id="d343_3" lane="-365.192.58_3" pos="11.30" freq="900.00" file="NUL"/>
    <e1Detector id="d343_4" lane="-379.156.05_1" pos="19.21" freq="900.00" file="NUL"/>
    <e1Detector id="d343_5" lane="-379.156.05_2" pos="19.07" freq="900.00" file="NUL"/>
    <e1Detector id="d343_6" lane="344.115.72_3" pos="19.22" freq="900.00" file="NUL"/>
    <e1Detector id="d364_1" lane="-535.167.40_1" pos="5.89" freq="900.00" file="NUL"/>
    <e1Detector id="d364_2" lane="-535.167.40_2" pos="5.80" freq="900.00" file="NUL"/>
    <e1Detector id="d364_3" lane="-533.105.95_3" pos="14.81" freq="900.00" file="NUL"/>
    <e1Detector id="d364_4" lane="-569.173.56_1" pos="0.96" freq="900.00" file="NUL"/>
    <e1Detector id="d364_5" lane="-569.173.56_2" pos="1.05" freq="900.00" file="NUL"/>
    <e1Detector id="d364_6" lane="365.192.58_3" pos="7.10" freq="900.00" file="NUL"/>
    <e1Detector id="d591_1" lane="-650.182.67_1" pos="0.44" freq="900.00" file="NUL"/>
    <e1Detector id="d591_2" lane="-650.182.67_2" pos="0.50" freq="900.00" file="NUL"/>
    <e1Detector id="d591_3" lane="592.99.42_3" pos="0.29" freq="900.00" file="NUL"/>
    <e1Detector id="d591_4" lane="-674.173.08_1" pos="0.25" freq="900.00" file="NUL"/>
    <e1Detector id="d591_5" lane="-674.173.08_2" pos="0.19" freq="900.00" file="NUL"/>
    <e1Detector id="d591_6" lane="-642.209.81_3" pos="8.51" freq="900.00" file="NUL"/>
    <e1Detector id="d63_1" lane="-326_1" pos="78.91" freq="900.00" file="NUL"/>
    <e1Detector id="d63_2" lane="121.191.36_3" pos="0.93" freq="900.00" file="NUL"/>
</additional>
