<?xml version="1.0" encoding="UTF-8"?>

<!-- generated on 11/19/20 22:18:41 by Eclipse SUMO netedit Version 1.7.0
<configuration xmlns:xsi="http://www.w3.org/2001/XMLSchema-instance" xsi:noNamespaceSchemaLocation="http://sumo.dlr.de/xsd/netconvertConfiguration.xsd">

    <input>
        <sumo-net-file value="D:\sumo\sin\sin.net.xml"/>
    </input>

    <output>
        <output-file value="D:\sumo\sin\sin.net.xml"/>
    </output>

    <processing>
        <geometry.min-radius.fix.railways value="false"/>
        <geometry.max-grade.fix value="false"/>
        <offset.disable-normalization value="true"/>
        <lefthand value="false"/>
    </processing>

    <junctions>
        <no-internal-links value="false"/>
        <no-turnarounds value="true"/>
        <junctions.corner-detail value="5"/>
        <junctions.limit-turn-speed value="5.5"/>
        <rectangular-lane-cut value="false"/>
    </junctions>

    <pedestrian>
        <walkingareas value="true"/>
    </pedestrian>

    <netedit>
        <additional-files value="D:\sumo\sin\sin.net.add.xml"/>
    </netedit>

    <report>
        <aggregate-warnings value="5"/>
    </report>

</configuration>
-->

<additional xmlns:xsi="http://www.w3.org/2001/XMLSchema-instance" xsi:noNamespaceSchemaLocation="http://sumo.dlr.de/xsd/additional_file.xsd">
    <e1Detector id="d14_1" lane="-117_1" pos="72.77" freq="30" file="NUL"/>
    <e1Detector id="d14_2" lane="15.128.29_3" pos="2.26" freq="30.00" file="NUL"/>
    <e1Detector id="d2_1" lane="3_1" pos="159.74" freq="900.00" file="NUL"/>
    <e1Detector id="d2_2" lane="-15.103_3" pos="2.22" freq="30" file="NUL"/>
</additional>
